/*---------------------------------------------------------------------------*\
| =========                 |                                                 |
| \\      /  F ield         | OpenFOAM: The Open Source CFD Toolbox           |
|  \\    /   O peration     | Version:  v2012                                 |
|   \\  /    A nd           | Website:  www.openfoam.com                      |
|    \\/     M anipulation  |                                                 |
\*---------------------------------------------------------------------------*/
Build  : _7bdb509494-20201222 OPENFOAM=2012
Arch   : "LSB;label=32;scalar=64"
Exec   : simpleFoam
Date   : Jan 05 2022
Time   : 16:23:55
Host   : nipinl-pc
PID    : 16457
I/O    : uncollated
Case   : /home/nipinl/OpenFOAM/nipinl-v2012/solvers/simpleFoam/case
nProcs : 1
trapFpe: Floating point exception trapping enabled (FOAM_SIGFPE).
fileModificationChecking : Monitoring run-time modified files using timeStampMaster (fileModificationSkew 5, maxFileModificationPolls 20)
allowSystemOperations : Allowing user-supplied system call operations

// * * * * * * * * * * * * * * * * * * * * * * * * * * * * * * * * * * * * * //
Create time

--> FOAM Warning : 
    From void* Foam::dlLibraryTable::openLibrary(const Foam::fileName&, bool)
    in file db/dynamicLibrary/dlLibraryTable/dlLibraryTable.C at line 188
    Could not load "libincompressibleTurbulenceModel.so"
libincompressibleTurbulenceModel.so: cannot open shared object file: No such file or directory
--> FOAM Warning : 
    From void* Foam::dlLibraryTable::openLibrary(const Foam::fileName&, bool)
    in file db/dynamicLibrary/dlLibraryTable/dlLibraryTable.C at line 188
    Could not load "libincompressibleRASModels.so"
libincompressibleRASModels.so: cannot open shared object file: No such file or directory
--> FOAM Warning : 
    From void* Foam::dlLibraryTable::openLibrary(const Foam::fileName&, bool)
    in file db/dynamicLibrary/dlLibraryTable/dlLibraryTable.C at line 188
    Could not load "libsimpleSwakFunctionObjects.so"
libsimpleSwakFunctionObjects.so: cannot open shared object file: No such file or directory
--> FOAM Warning : 
    From void* Foam::dlLibraryTable::openLibrary(const Foam::fileName&, bool)
    in file db/dynamicLibrary/dlLibraryTable/dlLibraryTable.C at line 188
    Could not load "libswakFunctionObjects.so"
libswakFunctionObjects.so: cannot open shared object file: No such file or directory
--> FOAM Warning : 
    From void* Foam::dlLibraryTable::openLibrary(const Foam::fileName&, bool)
    in file db/dynamicLibrary/dlLibraryTable/dlLibraryTable.C at line 188
    Could not load "libgroovyBC.so"
libgroovyBC.so: cannot open shared object file: No such file or directory
--> FOAM Warning : 
    From static Foam::IOstreamOption::compressionType Foam::IOstreamOption::compressionEnum(const Foam::word&, Foam::IOstreamOption::compressionType)
    in file db/IOstreams/IOstreams/IOstreamOption.C at line 115
    Unknown compression specifier 'uncompressed', using compression off
Create mesh for time = 0


SIMPLE: convergence criteria
    field p	 tolerance 0.01
    field U	 tolerance 0.001
    field "(k|epsilon)"	 tolerance 0.001

Reading field p

Reading field U

Reading/calculating face flux field phi

Selecting incompressible transport model Newtonian
Selecting turbulence model type laminar
Selecting laminar stress model Stokes
No MRF models present

No finite volume options present

Starting time loop

Time = 1

DILUPBiCG:  Solving for Ux, Initial residual = 1, Final residual = 0.0107702, No Iterations 1
DILUPBiCG:  Solving for Uy, Initial residual = 0.00155743, Final residual = 1.28112e-05, No Iterations 1
DILUPBiCG:  Solving for Uz, Initial residual = 0.00152537, Final residual = 1.31094e-05, No Iterations 1
DICPCG:  Solving for p, Initial residual = 1, Final residual = 0.00920236, No Iterations 116
time step continuity errors : sum local = 0.130187, global = -0.00283335, cumulative = -0.00283335
ExecutionTime = 0.02 s  ClockTime = 1 s

Time = 2

DILUPBiCG:  Solving for Ux, Initial residual = 0.576671, Final residual = 0.0506898, No Iterations 1
DILUPBiCG:  Solving for Uy, Initial residual = 0.297815, Final residual = 0.023269, No Iterations 1
DILUPBiCG:  Solving for Uz, Initial residual = 0.349473, Final residual = 0.0250444, No Iterations 1
DICPCG:  Solving for p, Initial residual = 0.115859, Final residual = 0.000984261, No Iterations 128
time step continuity errors : sum local = 0.116898, global = 0.00188914, cumulative = -0.000944217
ExecutionTime = 0.03 s  ClockTime = 1 s

Time = 3

DILUPBiCG:  Solving for Ux, Initial residual = 0.643944, Final residual = 0.0638716, No Iterations 1
DILUPBiCG:  Solving for Uy, Initial residual = 0.247025, Final residual = 0.00124101, No Iterations 2
DILUPBiCG:  Solving for Uz, Initial residual = 0.231511, Final residual = 0.001162, No Iterations 2
DICPCG:  Solving for p, Initial residual = 0.0985769, Final residual = 0.000859354, No Iterations 122
time step continuity errors : sum local = 0.205054, global = -0.00397332, cumulative = -0.00491754
ExecutionTime = 0.04 s  ClockTime = 1 s

Time = 4

DILUPBiCG:  Solving for Ux, Initial residual = 0.279841, Final residual = 0.0254462, No Iterations 1
DILUPBiCG:  Solving for Uy, Initial residual = 0.265247, Final residual = 0.0014427, No Iterations 2
DILUPBiCG:  Solving for Uz, Initial residual = 0.236174, Final residual = 0.00119362, No Iterations 2
DICPCG:  Solving for p, Initial residual = 0.10846, Final residual = 0.000722936, No Iterations 126
time step continuity errors : sum local = 0.141379, global = 0.00170075, cumulative = -0.00321679
ExecutionTime = 0.05 s  ClockTime = 1 s

Time = 5

DILUPBiCG:  Solving for Ux, Initial residual = 0.12448, Final residual = 0.011177, No Iterations 1
DILUPBiCG:  Solving for Uy, Initial residual = 0.213296, Final residual = 0.000895986, No Iterations 2
DILUPBiCG:  Solving for Uz, Initial residual = 0.204946, Final residual = 0.000898936, No Iterations 2
DICPCG:  Solving for p, Initial residual = 0.614795, Final residual = 0.00490238, No Iterations 129
time step continuity errors : sum local = 0.12559, global = -0.000430624, cumulative = -0.00364741
ExecutionTime = 0.07 s  ClockTime = 1 s

Time = 6

DILUPBiCG:  Solving for Ux, Initial residual = 0.22505, Final residual = 0.0198907, No Iterations 1
DILUPBiCG:  Solving for Uy, Initial residual = 0.183065, Final residual = 0.00264383, No Iterations 2
DILUPBiCG:  Solving for Uz, Initial residual = 0.172545, Final residual = 0.0137247, No Iterations 1
DICPCG:  Solving for p, Initial residual = 0.167658, Final residual = 0.00149798, No Iterations 114
time step continuity errors : sum local = 0.150054, global = -0.00766648, cumulative = -0.0113139
ExecutionTime = 0.08 s  ClockTime = 1 s

Time = 7

DILUPBiCG:  Solving for Ux, Initial residual = 0.169446, Final residual = 0.0148288, No Iterations 1
DILUPBiCG:  Solving for Uy, Initial residual = 0.204703, Final residual = 0.00100738, No Iterations 2
DILUPBiCG:  Solving for Uz, Initial residual = 0.177495, Final residual = 0.012063, No Iterations 1
DICPCG:  Solving for p, Initial residual = 0.169519, Final residual = 0.00166536, No Iterations 127
time step continuity errors : sum local = 0.141272, global = -0.00133414, cumulative = -0.012648
ExecutionTime = 0.09 s  ClockTime = 1 s

Time = 8

DILUPBiCG:  Solving for Ux, Initial residual = 0.0574243, Final residual = 0.000281184, No Iterations 2
DILUPBiCG:  Solving for Uy, Initial residual = 0.23762, Final residual = 0.0200636, No Iterations 1
DILUPBiCG:  Solving for Uz, Initial residual = 0.182415, Final residual = 0.0123726, No Iterations 1
DICPCG:  Solving for p, Initial residual = 0.537024, Final residual = 0.00526607, No Iterations 124
time step continuity errors : sum local = 0.107461, global = -0.00155437, cumulative = -0.0142024
ExecutionTime = 0.1 s  ClockTime = 1 s

Time = 9

DILUPBiCG:  Solving for Ux, Initial residual = 0.0753301, Final residual = 0.00650252, No Iterations 1
DILUPBiCG:  Solving for Uy, Initial residual = 0.213807, Final residual = 0.014158, No Iterations 1
DILUPBiCG:  Solving for Uz, Initial residual = 0.155059, Final residual = 0.0103501, No Iterations 1
DICPCG:  Solving for p, Initial residual = 0.157045, Final residual = 0.00122114, No Iterations 129
time step continuity errors : sum local = 0.0775541, global = 0.000987647, cumulative = -0.0132148
ExecutionTime = 0.11 s  ClockTime = 1 s

Time = 10

DILUPBiCG:  Solving for Ux, Initial residual = 0.0925571, Final residual = 0.00742393, No Iterations 1
DILUPBiCG:  Solving for Uy, Initial residual = 0.188133, Final residual = 0.0121167, No Iterations 1
DILUPBiCG:  Solving for Uz, Initial residual = 0.166167, Final residual = 0.0120922, No Iterations 1
DICPCG:  Solving for p, Initial residual = 0.128097, Final residual = 0.00111989, No Iterations 127
time step continuity errors : sum local = 0.0829748, global = -0.000253154, cumulative = -0.0134679
ExecutionTime = 0.13 s  ClockTime = 1 s

Time = 11

DILUPBiCG:  Solving for Ux, Initial residual = 0.0472203, Final residual = 0.00382015, No Iterations 1
DILUPBiCG:  Solving for Uy, Initial residual = 0.160905, Final residual = 0.0104668, No Iterations 1
DILUPBiCG:  Solving for Uz, Initial residual = 0.172502, Final residual = 0.0123363, No Iterations 1
DICPCG:  Solving for p, Initial residual = 0.139945, Final residual = 0.00112194, No Iterations 129
time step continuity errors : sum local = 0.0596314, global = 0.000994402, cumulative = -0.0124735
ExecutionTime = 0.14 s  ClockTime = 1 s

Time = 12

DILUPBiCG:  Solving for Ux, Initial residual = 0.0261214, Final residual = 0.00222378, No Iterations 1
DILUPBiCG:  Solving for Uy, Initial residual = 0.163626, Final residual = 0.0115262, No Iterations 1
DILUPBiCG:  Solving for Uz, Initial residual = 0.158625, Final residual = 0.00996788, No Iterations 1
DICPCG:  Solving for p, Initial residual = 0.281945, Final residual = 0.00202669, No Iterations 129
time step continuity errors : sum local = 0.044757, global = 9.17787e-05, cumulative = -0.0123817
ExecutionTime = 0.15 s  ClockTime = 1 s

Time = 13

DILUPBiCG:  Solving for Ux, Initial residual = 0.0361481, Final residual = 0.00338102, No Iterations 1
DILUPBiCG:  Solving for Uy, Initial residual = 0.160253, Final residual = 0.00976793, No Iterations 1
DILUPBiCG:  Solving for Uz, Initial residual = 0.134971, Final residual = 0.00801851, No Iterations 1
DICPCG:  Solving for p, Initial residual = 0.350622, Final residual = 0.00349751, No Iterations 128
time step continuity errors : sum local = 0.0591835, global = -0.000471949, cumulative = -0.0128537
ExecutionTime = 0.16 s  ClockTime = 1 s

Time = 14

DILUPBiCG:  Solving for Ux, Initial residual = 0.0281168, Final residual = 0.000115041, No Iterations 2
DILUPBiCG:  Solving for Uy, Initial residual = 0.153219, Final residual = 0.0093886, No Iterations 1
DILUPBiCG:  Solving for Uz, Initial residual = 0.126271, Final residual = 0.00754349, No Iterations 1
DICPCG:  Solving for p, Initial residual = 0.389058, Final residual = 0.0033455, No Iterations 129
time step continuity errors : sum local = 0.0434773, global = -0.00050085, cumulative = -0.0133545
ExecutionTime = 0.17 s  ClockTime = 1 s

Time = 15

DILUPBiCG:  Solving for Ux, Initial residual = 0.0130304, Final residual = 0.0010193, No Iterations 1
DILUPBiCG:  Solving for Uy, Initial residual = 0.1285, Final residual = 0.00766605, No Iterations 1
DILUPBiCG:  Solving for Uz, Initial residual = 0.110668, Final residual = 0.00674748, No Iterations 1
DICPCG:  Solving for p, Initial residual = 0.218229, Final residual = 0.00170748, No Iterations 129
time step continuity errors : sum local = 0.0321648, global = 2.3546e-05, cumulative = -0.013331
ExecutionTime = 0.18 s  ClockTime = 1 s

Time = 16

DILUPBiCG:  Solving for Ux, Initial residual = 0.0133193, Final residual = 4.29821e-05, No Iterations 2
DILUPBiCG:  Solving for Uy, Initial residual = 0.10718, Final residual = 0.00630133, No Iterations 1
DILUPBiCG:  Solving for Uz, Initial residual = 0.0988424, Final residual = 0.00575016, No Iterations 1
DICPCG:  Solving for p, Initial residual = 0.134429, Final residual = 0.0012413, No Iterations 129
time step continuity errors : sum local = 0.0340116, global = 4.5975e-06, cumulative = -0.0133264
ExecutionTime = 0.19 s  ClockTime = 1 s

Time = 17

DILUPBiCG:  Solving for Ux, Initial residual = 0.0140035, Final residual = 3.90793e-05, No Iterations 2
DILUPBiCG:  Solving for Uy, Initial residual = 0.103648, Final residual = 0.00601461, No Iterations 1
DILUPBiCG:  Solving for Uz, Initial residual = 0.08968, Final residual = 0.00533532, No Iterations 1
DICPCG:  Solving for p, Initial residual = 0.100585, Final residual = 0.000869239, No Iterations 128
time step continuity errors : sum local = 0.0281728, global = -0.000274335, cumulative = -0.0136007
ExecutionTime = 0.2 s  ClockTime = 1 s

Time = 18

DILUPBiCG:  Solving for Ux, Initial residual = 0.00917773, Final residual = 2.80747e-05, No Iterations 2
DILUPBiCG:  Solving for Uy, Initial residual = 0.10149, Final residual = 0.00610677, No Iterations 1
DILUPBiCG:  Solving for Uz, Initial residual = 0.0835367, Final residual = 0.00469723, No Iterations 1
DICPCG:  Solving for p, Initial residual = 0.106889, Final residual = 0.000796039, No Iterations 119
time step continuity errors : sum local = 0.0205996, global = -0.000581262, cumulative = -0.014182
ExecutionTime = 0.21 s  ClockTime = 1 s

Time = 19

DILUPBiCG:  Solving for Ux, Initial residual = 0.00619723, Final residual = 0.00041159, No Iterations 1
DILUPBiCG:  Solving for Uy, Initial residual = 0.0889505, Final residual = 0.00472863, No Iterations 1
DILUPBiCG:  Solving for Uz, Initial residual = 0.0753182, Final residual = 0.00387699, No Iterations 1
DICPCG:  Solving for p, Initial residual = 0.110321, Final residual = 0.000939468, No Iterations 129
time step continuity errors : sum local = 0.0210231, global = -0.000251262, cumulative = -0.0144332
ExecutionTime = 0.22 s  ClockTime = 1 s

Time = 20

DILUPBiCG:  Solving for Ux, Initial residual = 0.00599946, Final residual = 3.28244e-05, No Iterations 2
DILUPBiCG:  Solving for Uy, Initial residual = 0.0813625, Final residual = 0.00404228, No Iterations 1
DILUPBiCG:  Solving for Uz, Initial residual = 0.071383, Final residual = 0.00349731, No Iterations 1
DICPCG:  Solving for p, Initial residual = 0.119948, Final residual = 0.000933149, No Iterations 128
time step continuity errors : sum local = 0.0173686, global = -0.000149754, cumulative = -0.014583
ExecutionTime = 0.24 s  ClockTime = 1 s

Time = 21

DILUPBiCG:  Solving for Ux, Initial residual = 0.00517278, Final residual = 4.73991e-05, No Iterations 2
DILUPBiCG:  Solving for Uy, Initial residual = 0.0790021, Final residual = 0.00378872, No Iterations 1
DILUPBiCG:  Solving for Uz, Initial residual = 0.0643724, Final residual = 0.0030505, No Iterations 1
DICPCG:  Solving for p, Initial residual = 0.105233, Final residual = 0.000896752, No Iterations 126
time step continuity errors : sum local = 0.0163545, global = 0.000135245, cumulative = -0.0144478
ExecutionTime = 0.25 s  ClockTime = 1 s

Time = 22

DILUPBiCG:  Solving for Ux, Initial residual = 0.00371657, Final residual = 2.76139e-05, No Iterations 2
DILUPBiCG:  Solving for Uy, Initial residual = 0.0697229, Final residual = 0.00332145, No Iterations 1
DILUPBiCG:  Solving for Uz, Initial residual = 0.055123, Final residual = 0.0025563, No Iterations 1
DICPCG:  Solving for p, Initial residual = 0.0909384, Final residual = 0.000655252, No Iterations 130
time step continuity errors : sum local = 0.0120381, global = -7.85759e-05, cumulative = -0.0145263
ExecutionTime = 0.26 s  ClockTime = 1 s

Time = 23

DILUPBiCG:  Solving for Ux, Initial residual = 0.00302204, Final residual = 0.000218201, No Iterations 1
DILUPBiCG:  Solving for Uy, Initial residual = 0.0597815, Final residual = 0.00278724, No Iterations 1
DILUPBiCG:  Solving for Uz, Initial residual = 0.0490216, Final residual = 0.00232704, No Iterations 1
DICPCG:  Solving for p, Initial residual = 0.073858, Final residual = 0.000580731, No Iterations 129
time step continuity errors : sum local = 0.0118508, global = 6.03892e-05, cumulative = -0.0144659
ExecutionTime = 0.27 s  ClockTime = 1 s

Time = 24

DILUPBiCG:  Solving for Ux, Initial residual = 0.00279698, Final residual = 0.000265739, No Iterations 1
DILUPBiCG:  Solving for Uy, Initial residual = 0.0507298, Final residual = 0.00234667, No Iterations 1
DILUPBiCG:  Solving for Uz, Initial residual = 0.0448863, Final residual = 0.00208796, No Iterations 1
DICPCG:  Solving for p, Initial residual = 0.0615731, Final residual = 0.000550055, No Iterations 129
time step continuity errors : sum local = 0.0119824, global = 4.34787e-05, cumulative = -0.0144225
ExecutionTime = 0.28 s  ClockTime = 1 s

Time = 25

DILUPBiCG:  Solving for Ux, Initial residual = 0.00246219, Final residual = 5.71063e-06, No Iterations 2
DILUPBiCG:  Solving for Uy, Initial residual = 0.0460226, Final residual = 0.00207783, No Iterations 1
DILUPBiCG:  Solving for Uz, Initial residual = 0.0430351, Final residual = 0.00197175, No Iterations 1
DICPCG:  Solving for p, Initial residual = 0.0561377, Final residual = 0.000515328, No Iterations 128
time step continuity errors : sum local = 0.010813, global = -0.000145718, cumulative = -0.0145682
ExecutionTime = 0.29 s  ClockTime = 1 s

Time = 26

DILUPBiCG:  Solving for Ux, Initial residual = 0.00202594, Final residual = 0.000117378, No Iterations 1
DILUPBiCG:  Solving for Uy, Initial residual = 0.0408209, Final residual = 0.00182234, No Iterations 1
DILUPBiCG:  Solving for Uz, Initial residual = 0.0382484, Final residual = 0.00167332, No Iterations 1
DICPCG:  Solving for p, Initial residual = 0.0485442, Final residual = 0.000347716, No Iterations 128
time step continuity errors : sum local = 0.00744103, global = 4.85241e-05, cumulative = -0.0145197
ExecutionTime = 0.3 s  ClockTime = 1 s

Time = 27

DILUPBiCG:  Solving for Ux, Initial residual = 0.00177787, Final residual = 3.28267e-05, No Iterations 2
DILUPBiCG:  Solving for Uy, Initial residual = 0.0380319, Final residual = 0.00165163, No Iterations 1
DILUPBiCG:  Solving for Uz, Initial residual = 0.0342763, Final residual = 0.00148583, No Iterations 1
DICPCG:  Solving for p, Initial residual = 0.0452114, Final residual = 0.000281103, No Iterations 130
time step continuity errors : sum local = 0.00580544, global = 5.31764e-05, cumulative = -0.0144665
ExecutionTime = 0.31 s  ClockTime = 1 s

Time = 28

DILUPBiCG:  Solving for Ux, Initial residual = 0.00154559, Final residual = 3.78551e-05, No Iterations 2
DILUPBiCG:  Solving for Uy, Initial residual = 0.0354954, Final residual = 0.00154477, No Iterations 1
DILUPBiCG:  Solving for Uz, Initial residual = 0.0295224, Final residual = 0.00126422, No Iterations 1
DICPCG:  Solving for p, Initial residual = 0.0408346, Final residual = 0.000407839, No Iterations 128
time step continuity errors : sum local = 0.00838225, global = 2.41807e-05, cumulative = -0.0144423
ExecutionTime = 0.32 s  ClockTime = 1 s

Time = 29

DILUPBiCG:  Solving for Ux, Initial residual = 0.00140178, Final residual = 2.98647e-05, No Iterations 2
DILUPBiCG:  Solving for Uy, Initial residual = 0.0332206, Final residual = 0.00148663, No Iterations 1
DILUPBiCG:  Solving for Uz, Initial residual = 0.0264085, Final residual = 0.00210044, No Iterations 1
DICPCG:  Solving for p, Initial residual = 0.0362996, Final residual = 0.000340151, No Iterations 128
time step continuity errors : sum local = 0.00691483, global = 4.16349e-06, cumulative = -0.0144381
ExecutionTime = 0.33 s  ClockTime = 1 s

Time = 30

DILUPBiCG:  Solving for Ux, Initial residual = 0.00126239, Final residual = 5.35123e-05, No Iterations 1
DILUPBiCG:  Solving for Uy, Initial residual = 0.0300489, Final residual = 0.00128412, No Iterations 1
DILUPBiCG:  Solving for Uz, Initial residual = 0.0239624, Final residual = 0.00104397, No Iterations 1
DICPCG:  Solving for p, Initial residual = 0.0328603, Final residual = 0.000328205, No Iterations 126
time step continuity errors : sum local = 0.00670001, global = 4.38501e-05, cumulative = -0.0143943
ExecutionTime = 0.35 s  ClockTime = 1 s

Time = 31

DILUPBiCG:  Solving for Ux, Initial residual = 0.00119679, Final residual = 0.00011646, No Iterations 1
DILUPBiCG:  Solving for Uy, Initial residual = 0.02763, Final residual = 0.00126007, No Iterations 1
DILUPBiCG:  Solving for Uz, Initial residual = 0.023423, Final residual = 5.38777e-05, No Iterations 2
DICPCG:  Solving for p, Initial residual = 0.0287006, Final residual = 0.000219355, No Iterations 126
time step continuity errors : sum local = 0.0045454, global = 4.99976e-05, cumulative = -0.0143443
ExecutionTime = 0.36 s  ClockTime = 1 s

Time = 32

DILUPBiCG:  Solving for Ux, Initial residual = 0.00114625, Final residual = 0.000108502, No Iterations 1
DILUPBiCG:  Solving for Uy, Initial residual = 0.0242701, Final residual = 0.00102678, No Iterations 1
DILUPBiCG:  Solving for Uz, Initial residual = 0.0221055, Final residual = 0.000958174, No Iterations 1
DICPCG:  Solving for p, Initial residual = 0.0259879, Final residual = 0.000240455, No Iterations 127
time step continuity errors : sum local = 0.00502449, global = 2.3164e-06, cumulative = -0.014342
ExecutionTime = 0.37 s  ClockTime = 1 s

Time = 33

DILUPBiCG:  Solving for Ux, Initial residual = 0.00111261, Final residual = 2.02868e-06, No Iterations 2
DILUPBiCG:  Solving for Uy, Initial residual = 0.0219231, Final residual = 0.00196482, No Iterations 1
DILUPBiCG:  Solving for Uz, Initial residual = 0.0208433, Final residual = 0.00128232, No Iterations 1
DICPCG:  Solving for p, Initial residual = 0.0237805, Final residual = 0.00022985, No Iterations 81
time step continuity errors : sum local = 0.0047579, global = -0.000720484, cumulative = -0.0150625
ExecutionTime = 0.38 s  ClockTime = 1 s

Time = 34

DILUPBiCG:  Solving for Ux, Initial residual = 0.00101432, Final residual = 7.51836e-06, No Iterations 2
DILUPBiCG:  Solving for Uy, Initial residual = 0.0200825, Final residual = 0.000849797, No Iterations 1
DILUPBiCG:  Solving for Uz, Initial residual = 0.018355, Final residual = 0.000779608, No Iterations 1
DICPCG:  Solving for p, Initial residual = 0.0211689, Final residual = 0.00017301, No Iterations 128
time step continuity errors : sum local = 0.00363807, global = 1.92299e-05, cumulative = -0.0150432
ExecutionTime = 0.39 s  ClockTime = 1 s

Time = 35

DILUPBiCG:  Solving for Ux, Initial residual = 0.00097995, Final residual = 3.72857e-05, No Iterations 1
DILUPBiCG:  Solving for Uy, Initial residual = 0.0194883, Final residual = 0.00016536, No Iterations 2
DILUPBiCG:  Solving for Uz, Initial residual = 0.0170035, Final residual = 0.000853136, No Iterations 1
DICPCG:  Solving for p, Initial residual = 0.0195505, Final residual = 0.000148087, No Iterations 128
time step continuity errors : sum local = 0.00304346, global = 3.10259e-06, cumulative = -0.0150401
ExecutionTime = 0.4 s  ClockTime = 1 s

Time = 36

DILUPBiCG:  Solving for Ux, Initial residual = 0.000932937, Final residual = 3.49764e-05, No Iterations 1
DILUPBiCG:  Solving for Uy, Initial residual = 0.0186318, Final residual = 0.000812062, No Iterations 1
DILUPBiCG:  Solving for Uz, Initial residual = 0.0156527, Final residual = 0.000644682, No Iterations 1
DICPCG:  Solving for p, Initial residual = 0.0175656, Final residual = 0.000149612, No Iterations 125
time step continuity errors : sum local = 0.00313619, global = -3.85403e-05, cumulative = -0.0150787
ExecutionTime = 0.41 s  ClockTime = 1 s

Time = 37

DILUPBiCG:  Solving for Ux, Initial residual = 0.000911354, Final residual = 3.78734e-05, No Iterations 1
DILUPBiCG:  Solving for Uy, Initial residual = 0.0179768, Final residual = 0.00104114, No Iterations 1
DILUPBiCG:  Solving for Uz, Initial residual = 0.014778, Final residual = 0.000820654, No Iterations 1
DICPCG:  Solving for p, Initial residual = 0.0164733, Final residual = 0.000156095, No Iterations 125
time step continuity errors : sum local = 0.00320327, global = 2.05396e-05, cumulative = -0.0150581
ExecutionTime = 0.42 s  ClockTime = 1 s

Time = 38

DILUPBiCG:  Solving for Ux, Initial residual = 0.000870157, Final residual = 3.65207e-05, No Iterations 2
DILUPBiCG:  Solving for Uy, Initial residual = 0.016516, Final residual = 0.00069837, No Iterations 1
DILUPBiCG:  Solving for Uz, Initial residual = 0.0134868, Final residual = 0.000570399, No Iterations 1
DICPCG:  Solving for p, Initial residual = 0.0146219, Final residual = 0.000126605, No Iterations 77
time step continuity errors : sum local = 0.00264473, global = -1.79906e-05, cumulative = -0.0150761
ExecutionTime = 0.42 s  ClockTime = 1 s

Time = 39

DILUPBiCG:  Solving for Ux, Initial residual = 0.000848281, Final residual = 3.08117e-05, No Iterations 1
DILUPBiCG:  Solving for Uy, Initial residual = 0.0153862, Final residual = 0.0005064, No Iterations 2
DILUPBiCG:  Solving for Uz, Initial residual = 0.0130385, Final residual = 0.000635433, No Iterations 1
DICPCG:  Solving for p, Initial residual = 0.0134517, Final residual = 0.000134173, No Iterations 91
time step continuity errors : sum local = 0.00278452, global = -0.000393731, cumulative = -0.0154698
ExecutionTime = 0.43 s  ClockTime = 1 s

Time = 40

DILUPBiCG:  Solving for Ux, Initial residual = 0.000830067, Final residual = 5.0441e-05, No Iterations 2
DILUPBiCG:  Solving for Uy, Initial residual = 0.014117, Final residual = 0.000597753, No Iterations 1
DILUPBiCG:  Solving for Uz, Initial residual = 0.0123327, Final residual = 0.000520701, No Iterations 1
DICPCG:  Solving for p, Initial residual = 0.0123346, Final residual = 9.04592e-05, No Iterations 126
time step continuity errors : sum local = 0.00189643, global = 3.25404e-05, cumulative = -0.0154373
ExecutionTime = 0.45 s  ClockTime = 1 s

Time = 41

DILUPBiCG:  Solving for Ux, Initial residual = 0.000820143, Final residual = 3.13596e-05, No Iterations 1
DILUPBiCG:  Solving for Uy, Initial residual = 0.0132228, Final residual = 2.03569e-06, No Iterations 3
DILUPBiCG:  Solving for Uz, Initial residual = 0.0118689, Final residual = 0.000555276, No Iterations 1
DICPCG:  Solving for p, Initial residual = 0.011494, Final residual = 6.39024e-05, No Iterations 126
time step continuity errors : sum local = 0.00132536, global = 6.02159e-07, cumulative = -0.0154367
ExecutionTime = 0.46 s  ClockTime = 1 s

Time = 42

DILUPBiCG:  Solving for Ux, Initial residual = 0.000791259, Final residual = 7.48727e-06, No Iterations 2
DILUPBiCG:  Solving for Uy, Initial residual = 0.0125105, Final residual = 0.000535155, No Iterations 1
DILUPBiCG:  Solving for Uz, Initial residual = 0.0109701, Final residual = 0.000457571, No Iterations 1
DICPCG:  Solving for p, Initial residual = 0.0105658, Final residual = 9.38488e-05, No Iterations 50
time step continuity errors : sum local = 0.00198834, global = -0.000185389, cumulative = -0.0156221
ExecutionTime = 0.47 s  ClockTime = 1 s

Time = 43

DILUPBiCG:  Solving for Ux, Initial residual = 0.000796224, Final residual = 2.94653e-05, No Iterations 1
DILUPBiCG:  Solving for Uy, Initial residual = 0.0126202, Final residual = 0.00102948, No Iterations 1
DILUPBiCG:  Solving for Uz, Initial residual = 0.0107713, Final residual = 0.000525532, No Iterations 1
DICPCG:  Solving for p, Initial residual = 0.0101272, Final residual = 9.07781e-05, No Iterations 70
time step continuity errors : sum local = 0.00188849, global = -0.000139019, cumulative = -0.0157611
ExecutionTime = 0.47 s  ClockTime = 1 s

Time = 44

DILUPBiCG:  Solving for Ux, Initial residual = 0.000773039, Final residual = 2.20645e-05, No Iterations 2
DILUPBiCG:  Solving for Uy, Initial residual = 0.0119677, Final residual = 0.000508267, No Iterations 1
DILUPBiCG:  Solving for Uz, Initial residual = 0.00992859, Final residual = 0.000416683, No Iterations 1
DICPCG:  Solving for p, Initial residual = 0.00908368, Final residual = 8.23863e-05, No Iterations 70
time step continuity errors : sum local = 0.00174038, global = 6.79378e-05, cumulative = -0.0156932
ExecutionTime = 0.48 s  ClockTime = 1 s

Time = 45

DILUPBiCG:  Solving for Ux, Initial residual = 0.000756566, Final residual = 3.02113e-05, No Iterations 1
DILUPBiCG:  Solving for Uy, Initial residual = 0.0116705, Final residual = 0.00087219, No Iterations 1
DILUPBiCG:  Solving for Uz, Initial residual = 0.00969884, Final residual = 0.000449278, No Iterations 1
DICPCG:  Solving for p, Initial residual = 0.00851378, Final residual = 8.34773e-05, No Iterations 127
time step continuity errors : sum local = 0.00173846, global = -1.03307e-05, cumulative = -0.0157035
ExecutionTime = 0.49 s  ClockTime = 1 s

Time = 46

DILUPBiCG:  Solving for Ux, Initial residual = 0.000735571, Final residual = 6.02953e-05, No Iterations 1
DILUPBiCG:  Solving for Uy, Initial residual = 0.0108984, Final residual = 0.000471934, No Iterations 1
DILUPBiCG:  Solving for Uz, Initial residual = 0.00896757, Final residual = 0.000381366, No Iterations 1
DICPCG:  Solving for p, Initial residual = 0.0081512, Final residual = 7.86511e-05, No Iterations 88
time step continuity errors : sum local = 0.00165072, global = -2.93431e-05, cumulative = -0.0157328
ExecutionTime = 0.5 s  ClockTime = 1 s

Time = 47

DILUPBiCG:  Solving for Ux, Initial residual = 0.000728811, Final residual = 2.6423e-05, No Iterations 1
DILUPBiCG:  Solving for Uy, Initial residual = 0.0106335, Final residual = 0.000965046, No Iterations 1
DILUPBiCG:  Solving for Uz, Initial residual = 0.00903319, Final residual = 0.00042446, No Iterations 1
DICPCG:  Solving for p, Initial residual = 0.00760769, Final residual = 7.48577e-05, No Iterations 50
time step continuity errors : sum local = 0.00154538, global = 0.000223267, cumulative = -0.0155096
ExecutionTime = 0.5 s  ClockTime = 1 s

Time = 48

DILUPBiCG:  Solving for Ux, Initial residual = 0.000710862, Final residual = 1.10243e-05, No Iterations 2
DILUPBiCG:  Solving for Uy, Initial residual = 0.00988352, Final residual = 0.000435293, No Iterations 1
DILUPBiCG:  Solving for Uz, Initial residual = 0.00838401, Final residual = 0.000358908, No Iterations 1
DICPCG:  Solving for p, Initial residual = 0.00739562, Final residual = 7.05524e-05, No Iterations 75
time step continuity errors : sum local = 0.00146938, global = 0.000257326, cumulative = -0.0152523
ExecutionTime = 0.51 s  ClockTime = 1 s

Time = 49

DILUPBiCG:  Solving for Ux, Initial residual = 0.000719999, Final residual = 2.61546e-05, No Iterations 1
DILUPBiCG:  Solving for Uy, Initial residual = 0.00999686, Final residual = 0.000816801, No Iterations 1
DILUPBiCG:  Solving for Uz, Initial residual = 0.00873876, Final residual = 0.000438589, No Iterations 1
DICPCG:  Solving for p, Initial residual = 0.00716395, Final residual = 6.10508e-05, No Iterations 34
time step continuity errors : sum local = 0.00126442, global = 0.000148953, cumulative = -0.0151033
ExecutionTime = 0.52 s  ClockTime = 1 s

Time = 50

DILUPBiCG:  Solving for Ux, Initial residual = 0.000694127, Final residual = 4.31142e-06, No Iterations 2
DILUPBiCG:  Solving for Uy, Initial residual = 0.00936492, Final residual = 0.000412229, No Iterations 1
DILUPBiCG:  Solving for Uz, Initial residual = 0.00795395, Final residual = 0.000340198, No Iterations 1
DICPCG:  Solving for p, Initial residual = 0.00668615, Final residual = 6.35168e-05, No Iterations 100
time step continuity errors : sum local = 0.00130905, global = -5.23551e-06, cumulative = -0.0151085
ExecutionTime = 0.53 s  ClockTime = 1 s

Time = 51

DILUPBiCG:  Solving for Ux, Initial residual = 0.000688684, Final residual = 2.59674e-05, No Iterations 1
DILUPBiCG:  Solving for Uy, Initial residual = 0.00934411, Final residual = 0.000738808, No Iterations 1
DILUPBiCG:  Solving for Uz, Initial residual = 0.00804843, Final residual = 0.000376335, No Iterations 1
DICPCG:  Solving for p, Initial residual = 0.00636439, Final residual = 5.57772e-05, No Iterations 34
time step continuity errors : sum local = 0.00115372, global = 0.00024379, cumulative = -0.0148647
ExecutionTime = 0.54 s  ClockTime = 1 s

Time = 52

DILUPBiCG:  Solving for Ux, Initial residual = 0.00067579, Final residual = 2.06835e-05, No Iterations 2
DILUPBiCG:  Solving for Uy, Initial residual = 0.00894626, Final residual = 0.000403735, No Iterations 1
DILUPBiCG:  Solving for Uz, Initial residual = 0.0075178, Final residual = 0.000325381, No Iterations 1
DICPCG:  Solving for p, Initial residual = 0.00622028, Final residual = 5.24838e-05, No Iterations 42
time step continuity errors : sum local = 0.0010824, global = 0.000191448, cumulative = -0.0146733
ExecutionTime = 0.54 s  ClockTime = 1 s

Time = 53

DILUPBiCG:  Solving for Ux, Initial residual = 0.000669296, Final residual = 2.67474e-05, No Iterations 1
DILUPBiCG:  Solving for Uy, Initial residual = 0.00888677, Final residual = 1.41964e-06, No Iterations 3
DILUPBiCG:  Solving for Uz, Initial residual = 0.00754211, Final residual = 0.000354233, No Iterations 1
DICPCG:  Solving for p, Initial residual = 0.00582132, Final residual = 5.53878e-05, No Iterations 50
time step continuity errors : sum local = 0.0011472, global = 4.7206e-05, cumulative = -0.0146261
ExecutionTime = 0.55 s  ClockTime = 1 s

Time = 54

DILUPBiCG:  Solving for Ux, Initial residual = 0.000650653, Final residual = 8.31307e-06, No Iterations 2
DILUPBiCG:  Solving for Uy, Initial residual = 0.00844672, Final residual = 0.000382473, No Iterations 1
DILUPBiCG:  Solving for Uz, Initial residual = 0.00699524, Final residual = 0.000306125, No Iterations 1
DICPCG:  Solving for p, Initial residual = 0.00587217, Final residual = 5.66185e-05, No Iterations 42
time step continuity errors : sum local = 0.00117242, global = 0.000206558, cumulative = -0.0144195
ExecutionTime = 0.56 s  ClockTime = 1 s

Time = 55

DILUPBiCG:  Solving for Ux, Initial residual = 0.000654782, Final residual = 2.362e-05, No Iterations 1
DILUPBiCG:  Solving for Uy, Initial residual = 0.00855103, Final residual = 0.000711757, No Iterations 1
DILUPBiCG:  Solving for Uz, Initial residual = 0.00720091, Final residual = 0.000360058, No Iterations 1
DICPCG:  Solving for p, Initial residual = 0.00571354, Final residual = 5.59876e-05, No Iterations 46
time step continuity errors : sum local = 0.00115745, global = 0.000208247, cumulative = -0.0142113
ExecutionTime = 0.56 s  ClockTime = 1 s

Time = 56

DILUPBiCG:  Solving for Ux, Initial residual = 0.000641422, Final residual = 9.85678e-06, No Iterations 2
DILUPBiCG:  Solving for Uy, Initial residual = 0.00806534, Final residual = 0.000363802, No Iterations 1
DILUPBiCG:  Solving for Uz, Initial residual = 0.00664841, Final residual = 0.000292494, No Iterations 1
DICPCG:  Solving for p, Initial residual = 0.00538918, Final residual = 5.34435e-05, No Iterations 25
time step continuity errors : sum local = 0.00111605, global = 0.000269221, cumulative = -0.0139421
ExecutionTime = 0.57 s  ClockTime = 1 s

Time = 57

DILUPBiCG:  Solving for Ux, Initial residual = 0.000635046, Final residual = 2.64049e-05, No Iterations 1
DILUPBiCG:  Solving for Uy, Initial residual = 0.0080909, Final residual = 0.000689603, No Iterations 1
DILUPBiCG:  Solving for Uz, Initial residual = 0.00685805, Final residual = 0.000327879, No Iterations 1
DICPCG:  Solving for p, Initial residual = 0.00515082, Final residual = 5.08764e-05, No Iterations 68
time step continuity errors : sum local = 0.0010583, global = 0.00011576, cumulative = -0.0138263
ExecutionTime = 0.57 s  ClockTime = 1 s

Time = 58

DILUPBiCG:  Solving for Ux, Initial residual = 0.000616564, Final residual = 8.27765e-06, No Iterations 2
DILUPBiCG:  Solving for Uy, Initial residual = 0.00761673, Final residual = 0.000352245, No Iterations 1
DILUPBiCG:  Solving for Uz, Initial residual = 0.00635118, Final residual = 0.000284476, No Iterations 1
DICPCG:  Solving for p, Initial residual = 0.0050884, Final residual = 4.70764e-05, No Iterations 104
time step continuity errors : sum local = 0.000987124, global = 8.68177e-05, cumulative = -0.0137395
ExecutionTime = 0.58 s  ClockTime = 1 s

Time = 59

DILUPBiCG:  Solving for Ux, Initial residual = 0.000619844, Final residual = 2.27645e-05, No Iterations 1
DILUPBiCG:  Solving for Uy, Initial residual = 0.00773647, Final residual = 0.000714873, No Iterations 1
DILUPBiCG:  Solving for Uz, Initial residual = 0.00654471, Final residual = 0.00031057, No Iterations 1
DICPCG:  Solving for p, Initial residual = 0.00492442, Final residual = 4.43907e-05, No Iterations 29
time step continuity errors : sum local = 0.000926856, global = 0.000210536, cumulative = -0.013529
ExecutionTime = 0.59 s  ClockTime = 1 s

Time = 60

DILUPBiCG:  Solving for Ux, Initial residual = 0.000606274, Final residual = 1.04396e-05, No Iterations 2
DILUPBiCG:  Solving for Uy, Initial residual = 0.00739423, Final residual = 0.000346029, No Iterations 1
DILUPBiCG:  Solving for Uz, Initial residual = 0.0060828, Final residual = 0.00027403, No Iterations 1
DICPCG:  Solving for p, Initial residual = 0.00495227, Final residual = 4.71186e-05, No Iterations 22
time step continuity errors : sum local = 0.000989978, global = 0.000199452, cumulative = -0.0133295
ExecutionTime = 0.6 s  ClockTime = 1 s

Time = 61

DILUPBiCG:  Solving for Ux, Initial residual = 0.000603397, Final residual = 2.19362e-05, No Iterations 1
DILUPBiCG:  Solving for Uy, Initial residual = 0.00755779, Final residual = 0.000582981, No Iterations 1
DILUPBiCG:  Solving for Uz, Initial residual = 0.00635531, Final residual = 0.000319135, No Iterations 1
DICPCG:  Solving for p, Initial residual = 0.00486802, Final residual = 4.58874e-05, No Iterations 17
time step continuity errors : sum local = 0.00095717, global = 0.000221071, cumulative = -0.0131084
ExecutionTime = 0.6 s  ClockTime = 1 s

Time = 62

DILUPBiCG:  Solving for Ux, Initial residual = 0.000590353, Final residual = 7.55609e-06, No Iterations 2
DILUPBiCG:  Solving for Uy, Initial residual = 0.00714174, Final residual = 0.000329306, No Iterations 1
DILUPBiCG:  Solving for Uz, Initial residual = 0.00579919, Final residual = 0.000260967, No Iterations 1
DICPCG:  Solving for p, Initial residual = 0.00463979, Final residual = 4.6051e-05, No Iterations 21
time step continuity errors : sum local = 0.000973045, global = 0.000159955, cumulative = -0.0129485
ExecutionTime = 0.61 s  ClockTime = 1 s

Time = 63

DILUPBiCG:  Solving for Ux, Initial residual = 0.000592052, Final residual = 2.1013e-05, No Iterations 1
DILUPBiCG:  Solving for Uy, Initial residual = 0.00729822, Final residual = 0.000599635, No Iterations 1
DILUPBiCG:  Solving for Uz, Initial residual = 0.00615392, Final residual = 0.000294115, No Iterations 1
DICPCG:  Solving for p, Initial residual = 0.00458598, Final residual = 4.57525e-05, No Iterations 28
time step continuity errors : sum local = 0.00095354, global = 0.000129121, cumulative = -0.0128194
ExecutionTime = 0.61 s  ClockTime = 1 s

Time = 64

DILUPBiCG:  Solving for Ux, Initial residual = 0.000579313, Final residual = 1.00261e-05, No Iterations 2
DILUPBiCG:  Solving for Uy, Initial residual = 0.00686704, Final residual = 0.000325318, No Iterations 1
DILUPBiCG:  Solving for Uz, Initial residual = 0.00570362, Final residual = 0.000260649, No Iterations 1
DICPCG:  Solving for p, Initial residual = 0.00452424, Final residual = 4.25347e-05, No Iterations 25
time step continuity errors : sum local = 0.000896483, global = 0.000119218, cumulative = -0.0127001
ExecutionTime = 0.62 s  ClockTime = 1 s

Time = 65

DILUPBiCG:  Solving for Ux, Initial residual = 0.000579191, Final residual = 2.06837e-05, No Iterations 1
DILUPBiCG:  Solving for Uy, Initial residual = 0.00700921, Final residual = 0.000590283, No Iterations 2
DILUPBiCG:  Solving for Uz, Initial residual = 0.00599042, Final residual = 0.000286173, No Iterations 1
DICPCG:  Solving for p, Initial residual = 0.00442728, Final residual = 4.18629e-05, No Iterations 25
time step continuity errors : sum local = 0.000871154, global = 9.92486e-05, cumulative = -0.0126009
ExecutionTime = 0.62 s  ClockTime = 1 s

Time = 66

DILUPBiCG:  Solving for Ux, Initial residual = 0.000564521, Final residual = 6.28277e-06, No Iterations 2
DILUPBiCG:  Solving for Uy, Initial residual = 0.00664415, Final residual = 0.000317936, No Iterations 1
DILUPBiCG:  Solving for Uz, Initial residual = 0.00554027, Final residual = 0.00025391, No Iterations 1
DICPCG:  Solving for p, Initial residual = 0.00448576, Final residual = 4.31184e-05, No Iterations 24
time step continuity errors : sum local = 0.000906239, global = 0.000130608, cumulative = -0.0124703
ExecutionTime = 0.63 s  ClockTime = 1 s

Time = 67

DILUPBiCG:  Solving for Ux, Initial residual = 0.000570468, Final residual = 2.05608e-05, No Iterations 1
DILUPBiCG:  Solving for Uy, Initial residual = 0.00689508, Final residual = 0.000579893, No Iterations 1
DILUPBiCG:  Solving for Uz, Initial residual = 0.00593501, Final residual = 0.000295969, No Iterations 1
DICPCG:  Solving for p, Initial residual = 0.00454326, Final residual = 4.13834e-05, No Iterations 23
time step continuity errors : sum local = 0.000860897, global = 9.0038e-05, cumulative = -0.0123802
ExecutionTime = 0.63 s  ClockTime = 1 s

Time = 68

DILUPBiCG:  Solving for Ux, Initial residual = 0.00056038, Final residual = 7.12063e-06, No Iterations 2
DILUPBiCG:  Solving for Uy, Initial residual = 0.00651734, Final residual = 0.000310927, No Iterations 1
DILUPBiCG:  Solving for Uz, Initial residual = 0.00543953, Final residual = 0.000246891, No Iterations 1
DICPCG:  Solving for p, Initial residual = 0.00431197, Final residual = 4.11885e-05, No Iterations 24
time step continuity errors : sum local = 0.000864836, global = 0.000126744, cumulative = -0.0122535
ExecutionTime = 0.64 s  ClockTime = 1 s

Time = 69

DILUPBiCG:  Solving for Ux, Initial residual = 0.000559646, Final residual = 1.98917e-05, No Iterations 1
DILUPBiCG:  Solving for Uy, Initial residual = 0.00664801, Final residual = 0.000555413, No Iterations 1
DILUPBiCG:  Solving for Uz, Initial residual = 0.00577604, Final residual = 0.000275868, No Iterations 1
DICPCG:  Solving for p, Initial residual = 0.00422944, Final residual = 4.20162e-05, No Iterations 25
time step continuity errors : sum local = 0.000879375, global = 0.000118913, cumulative = -0.0121346
ExecutionTime = 0.64 s  ClockTime = 1 s

Time = 70

DILUPBiCG:  Solving for Ux, Initial residual = 0.000549303, Final residual = 9.5509e-06, No Iterations 2
DILUPBiCG:  Solving for Uy, Initial residual = 0.00622837, Final residual = 0.00030588, No Iterations 1
DILUPBiCG:  Solving for Uz, Initial residual = 0.00536502, Final residual = 0.000247592, No Iterations 1
DICPCG:  Solving for p, Initial residual = 0.0042581, Final residual = 4.24402e-05, No Iterations 25
time step continuity errors : sum local = 0.000894541, global = 0.000134928, cumulative = -0.0119997
ExecutionTime = 0.65 s  ClockTime = 1 s

Time = 71

DILUPBiCG:  Solving for Ux, Initial residual = 0.000554434, Final residual = 1.96931e-05, No Iterations 1
DILUPBiCG:  Solving for Uy, Initial residual = 0.00640556, Final residual = 1.12599e-06, No Iterations 3
DILUPBiCG:  Solving for Uz, Initial residual = 0.00567462, Final residual = 0.000271989, No Iterations 1
DICPCG:  Solving for p, Initial residual = 0.00413709, Final residual = 4.01616e-05, No Iterations 26
time step continuity errors : sum local = 0.000841024, global = 0.000124564, cumulative = -0.0118751
ExecutionTime = 0.66 s  ClockTime = 1 s

Time = 72

DILUPBiCG:  Solving for Ux, Initial residual = 0.000542985, Final residual = 7.16115e-06, No Iterations 2
DILUPBiCG:  Solving for Uy, Initial residual = 0.00609052, Final residual = 0.000301529, No Iterations 1
DILUPBiCG:  Solving for Uz, Initial residual = 0.00528679, Final residual = 0.000244001, No Iterations 1
DICPCG:  Solving for p, Initial residual = 0.00429839, Final residual = 4.24301e-05, No Iterations 23
time step continuity errors : sum local = 0.000891267, global = 0.000153042, cumulative = -0.011722
ExecutionTime = 0.66 s  ClockTime = 1 s

Time = 73

DILUPBiCG:  Solving for Ux, Initial residual = 0.000550066, Final residual = 2.0881e-05, No Iterations 1
DILUPBiCG:  Solving for Uy, Initial residual = 0.00635633, Final residual = 0.000544442, No Iterations 1
DILUPBiCG:  Solving for Uz, Initial residual = 0.00568502, Final residual = 0.000284975, No Iterations 1
DICPCG:  Solving for p, Initial residual = 0.00428189, Final residual = 4.12188e-05, No Iterations 17
time step continuity errors : sum local = 0.000863785, global = 0.000143998, cumulative = -0.0115781
ExecutionTime = 0.67 s  ClockTime = 1 s

Time = 74

DILUPBiCG:  Solving for Ux, Initial residual = 0.000542442, Final residual = 7.30174e-06, No Iterations 2
DILUPBiCG:  Solving for Uy, Initial residual = 0.00597566, Final residual = 0.00029135, No Iterations 1
DILUPBiCG:  Solving for Uz, Initial residual = 0.00521463, Final residual = 0.000238205, No Iterations 1
DICPCG:  Solving for p, Initial residual = 0.00414416, Final residual = 3.8055e-05, No Iterations 21
time step continuity errors : sum local = 0.00079866, global = 0.000151453, cumulative = -0.0114266
ExecutionTime = 0.67 s  ClockTime = 1 s

Time = 75

DILUPBiCG:  Solving for Ux, Initial residual = 0.000545947, Final residual = 2.054e-05, No Iterations 1
DILUPBiCG:  Solving for Uy, Initial residual = 0.00618778, Final residual = 0.000507488, No Iterations 1
DILUPBiCG:  Solving for Uz, Initial residual = 0.00558189, Final residual = 0.000268472, No Iterations 1
DICPCG:  Solving for p, Initial residual = 0.00407387, Final residual = 3.67825e-05, No Iterations 29
time step continuity errors : sum local = 0.000770755, global = 0.000136559, cumulative = -0.01129
ExecutionTime = 0.68 s  ClockTime = 1 s

Time = 76

DILUPBiCG:  Solving for Ux, Initial residual = 0.000537699, Final residual = 1.0263e-05, No Iterations 2
DILUPBiCG:  Solving for Uy, Initial residual = 0.00583364, Final residual = 0.000292154, No Iterations 1
DILUPBiCG:  Solving for Uz, Initial residual = 0.00520606, Final residual = 0.000241378, No Iterations 1
DICPCG:  Solving for p, Initial residual = 0.0041348, Final residual = 3.74339e-05, No Iterations 25
time step continuity errors : sum local = 0.000785229, global = 0.000148234, cumulative = -0.0111418
ExecutionTime = 0.68 s  ClockTime = 1 s

Time = 77

DILUPBiCG:  Solving for Ux, Initial residual = 0.000543613, Final residual = 1.99845e-05, No Iterations 1
DILUPBiCG:  Solving for Uy, Initial residual = 0.00604747, Final residual = 1.08683e-06, No Iterations 3
DILUPBiCG:  Solving for Uz, Initial residual = 0.00551704, Final residual = 0.000265871, No Iterations 1
DICPCG:  Solving for p, Initial residual = 0.00399229, Final residual = 3.80314e-05, No Iterations 24
time step continuity errors : sum local = 0.000797063, global = 0.000141306, cumulative = -0.0110005
ExecutionTime = 0.68 s  ClockTime = 1 s

Time = 78

DILUPBiCG:  Solving for Ux, Initial residual = 0.000533778, Final residual = 7.36112e-06, No Iterations 2
DILUPBiCG:  Solving for Uy, Initial residual = 0.00579487, Final residual = 0.000290444, No Iterations 1
DILUPBiCG:  Solving for Uz, Initial residual = 0.00514715, Final residual = 0.000239106, No Iterations 1
DICPCG:  Solving for p, Initial residual = 0.00418957, Final residual = 3.97153e-05, No Iterations 23
time step continuity errors : sum local = 0.000832326, global = 0.000154633, cumulative = -0.0108459
ExecutionTime = 0.69 s  ClockTime = 1 s

Time = 79

DILUPBiCG:  Solving for Ux, Initial residual = 0.000543025, Final residual = 2.15317e-05, No Iterations 1
DILUPBiCG:  Solving for Uy, Initial residual = 0.00610029, Final residual = 0.000529881, No Iterations 1
DILUPBiCG:  Solving for Uz, Initial residual = 0.00555648, Final residual = 0.000279219, No Iterations 1
DICPCG:  Solving for p, Initial residual = 0.00417117, Final residual = 3.90262e-05, No Iterations 17
time step continuity errors : sum local = 0.000818152, global = 0.000154957, cumulative = -0.0106909
ExecutionTime = 0.69 s  ClockTime = 1 s

Time = 80

DILUPBiCG:  Solving for Ux, Initial residual = 0.000536072, Final residual = 7.46384e-06, No Iterations 2
DILUPBiCG:  Solving for Uy, Initial residual = 0.0057571, Final residual = 0.000283053, No Iterations 1
DILUPBiCG:  Solving for Uz, Initial residual = 0.00508809, Final residual = 0.000233831, No Iterations 1
DICPCG:  Solving for p, Initial residual = 0.0040487, Final residual = 3.51411e-05, No Iterations 21
time step continuity errors : sum local = 0.000736265, global = 0.000157364, cumulative = -0.0105335
ExecutionTime = 0.71 s  ClockTime = 1 s

Time = 81

DILUPBiCG:  Solving for Ux, Initial residual = 0.000540431, Final residual = 2.11701e-05, No Iterations 1
DILUPBiCG:  Solving for Uy, Initial residual = 0.0059928, Final residual = 0.000484471, No Iterations 1
DILUPBiCG:  Solving for Uz, Initial residual = 0.00546176, Final residual = 0.000263337, No Iterations 1
DICPCG:  Solving for p, Initial residual = 0.00398244, Final residual = 3.81172e-05, No Iterations 25
time step continuity errors : sum local = 0.000798773, global = 0.000153787, cumulative = -0.0103798
ExecutionTime = 0.71 s  ClockTime = 1 s

Time = 82

DILUPBiCG:  Solving for Ux, Initial residual = 0.000532976, Final residual = 1.06874e-05, No Iterations 2
DILUPBiCG:  Solving for Uy, Initial residual = 0.00566786, Final residual = 0.00028523, No Iterations 1
DILUPBiCG:  Solving for Uz, Initial residual = 0.00509571, Final residual = 0.000237221, No Iterations 1
DICPCG:  Solving for p, Initial residual = 0.00406046, Final residual = 4.01999e-05, No Iterations 24
time step continuity errors : sum local = 0.00084238, global = 0.000157873, cumulative = -0.0102219
ExecutionTime = 0.72 s  ClockTime = 1 s

Time = 83

DILUPBiCG:  Solving for Ux, Initial residual = 0.000539515, Final residual = 2.03268e-05, No Iterations 1
DILUPBiCG:  Solving for Uy, Initial residual = 0.00589906, Final residual = 1.07285e-06, No Iterations 3
DILUPBiCG:  Solving for Uz, Initial residual = 0.0054145, Final residual = 0.00026111, No Iterations 1
DICPCG:  Solving for p, Initial residual = 0.00392002, Final residual = 3.91698e-05, No Iterations 23
time step continuity errors : sum local = 0.000821036, global = 0.000154682, cumulative = -0.0100672
ExecutionTime = 0.72 s  ClockTime = 1 s

Time = 84

DILUPBiCG:  Solving for Ux, Initial residual = 0.000530168, Final residual = 7.3851e-06, No Iterations 2
DILUPBiCG:  Solving for Uy, Initial residual = 0.0056708, Final residual = 0.000285155, No Iterations 1
DILUPBiCG:  Solving for Uz, Initial residual = 0.00505303, Final residual = 0.000235508, No Iterations 1
DICPCG:  Solving for p, Initial residual = 0.0041315, Final residual = 4.10979e-05, No Iterations 17
time step continuity errors : sum local = 0.000860844, global = 0.000156903, cumulative = -0.0099103
ExecutionTime = 0.72 s  ClockTime = 1 s

Time = 85

DILUPBiCG:  Solving for Ux, Initial residual = 0.000540109, Final residual = 2.1778e-05, No Iterations 1
DILUPBiCG:  Solving for Uy, Initial residual = 0.00599075, Final residual = 0.000527553, No Iterations 1
DILUPBiCG:  Solving for Uz, Initial residual = 0.00547293, Final residual = 0.000274545, No Iterations 1
DICPCG:  Solving for p, Initial residual = 0.00411811, Final residual = 4.02242e-05, No Iterations 15
time step continuity errors : sum local = 0.000843351, global = 0.000160484, cumulative = -0.00974981
ExecutionTime = 0.73 s  ClockTime = 1 s

Time = 86

DILUPBiCG:  Solving for Ux, Initial residual = 0.000533479, Final residual = 7.49598e-06, No Iterations 2
DILUPBiCG:  Solving for Uy, Initial residual = 0.00566858, Final residual = 0.000279163, No Iterations 1
DILUPBiCG:  Solving for Uz, Initial residual = 0.00501028, Final residual = 0.000230655, No Iterations 1
DICPCG:  Solving for p, Initial residual = 0.00400128, Final residual = 3.85847e-05, No Iterations 21
time step continuity errors : sum local = 0.00080823, global = 0.000162378, cumulative = -0.00958744
ExecutionTime = 0.73 s  ClockTime = 1 s

Time = 87

DILUPBiCG:  Solving for Ux, Initial residual = 0.000538188, Final residual = 2.13485e-05, No Iterations 1
DILUPBiCG:  Solving for Uy, Initial residual = 0.0059163, Final residual = 0.000471183, No Iterations 1
DILUPBiCG:  Solving for Uz, Initial residual = 0.00539568, Final residual = 0.00026022, No Iterations 1
DICPCG:  Solving for p, Initial residual = 0.00394091, Final residual = 3.58305e-05, No Iterations 25
time step continuity errors : sum local = 0.000750898, global = 0.000162454, cumulative = -0.00942498
ExecutionTime = 0.74 s  ClockTime = 1 s

Time = 88

DILUPBiCG:  Solving for Ux, Initial residual = 0.000531327, Final residual = 1.07055e-05, No Iterations 2
DILUPBiCG:  Solving for Uy, Initial residual = 0.00559897, Final residual = 0.00028218, No Iterations 1
DILUPBiCG:  Solving for Uz, Initial residual = 0.00503507, Final residual = 0.00023501, No Iterations 1
DICPCG:  Solving for p, Initial residual = 0.00402646, Final residual = 3.61349e-05, No Iterations 25
time step continuity errors : sum local = 0.000757085, global = 0.000165712, cumulative = -0.00925927
ExecutionTime = 0.74 s  ClockTime = 1 s

Time = 89

DILUPBiCG:  Solving for Ux, Initial residual = 0.000538001, Final residual = 2.04138e-05, No Iterations 1
DILUPBiCG:  Solving for Uy, Initial residual = 0.005847, Final residual = 0.000581968, No Iterations 1
DILUPBiCG:  Solving for Uz, Initial residual = 0.00536847, Final residual = 0.000258944, No Iterations 1
DICPCG:  Solving for p, Initial residual = 0.003894, Final residual = 3.79453e-05, No Iterations 24
time step continuity errors : sum local = 0.000795298, global = 0.000165855, cumulative = -0.00909342
ExecutionTime = 0.74 s  ClockTime = 1 s

Time = 90

DILUPBiCG:  Solving for Ux, Initial residual = 0.000528899, Final residual = 7.32529e-06, No Iterations 2
DILUPBiCG:  Solving for Uy, Initial residual = 0.00559484, Final residual = 0.000281664, No Iterations 1
DILUPBiCG:  Solving for Uz, Initial residual = 0.00500915, Final residual = 0.000233951, No Iterations 1
DICPCG:  Solving for p, Initial residual = 0.00409015, Final residual = 4.08113e-05, No Iterations 17
time step continuity errors : sum local = 0.000854726, global = 0.000167826, cumulative = -0.00892559
ExecutionTime = 0.76 s  ClockTime = 1 s

Time = 91

DILUPBiCG:  Solving for Ux, Initial residual = 0.000538787, Final residual = 2.18669e-05, No Iterations 1
DILUPBiCG:  Solving for Uy, Initial residual = 0.00591756, Final residual = 0.000503573, No Iterations 1
DILUPBiCG:  Solving for Uz, Initial residual = 0.00543949, Final residual = 0.000273471, No Iterations 1
DICPCG:  Solving for p, Initial residual = 0.00409375, Final residual = 3.98428e-05, No Iterations 15
time step continuity errors : sum local = 0.000835325, global = 0.000170053, cumulative = -0.00875554
ExecutionTime = 0.76 s  ClockTime = 1 s

Time = 92

DILUPBiCG:  Solving for Ux, Initial residual = 0.000532648, Final residual = 7.51286e-06, No Iterations 2
DILUPBiCG:  Solving for Uy, Initial residual = 0.00566682, Final residual = 0.000280048, No Iterations 1
DILUPBiCG:  Solving for Uz, Initial residual = 0.00498906, Final residual = 0.000229863, No Iterations 1
DICPCG:  Solving for p, Initial residual = 0.00399009, Final residual = 3.86492e-05, No Iterations 21
time step continuity errors : sum local = 0.000809499, global = 0.000169415, cumulative = -0.00858612
ExecutionTime = 0.77 s  ClockTime = 1 s

Time = 93

DILUPBiCG:  Solving for Ux, Initial residual = 0.000537242, Final residual = 2.1409e-05, No Iterations 1
DILUPBiCG:  Solving for Uy, Initial residual = 0.00587808, Final residual = 0.000470185, No Iterations 1
DILUPBiCG:  Solving for Uz, Initial residual = 0.00537744, Final residual = 0.000258761, No Iterations 1
DICPCG:  Solving for p, Initial residual = 0.00391341, Final residual = 3.61041e-05, No Iterations 25
time step continuity errors : sum local = 0.000756616, global = 0.000166965, cumulative = -0.00841916
ExecutionTime = 0.77 s  ClockTime = 1 s

Time = 94

DILUPBiCG:  Solving for Ux, Initial residual = 0.000530514, Final residual = 1.0587e-05, No Iterations 2
DILUPBiCG:  Solving for Uy, Initial residual = 0.00557776, Final residual = 0.000281031, No Iterations 1
DILUPBiCG:  Solving for Uz, Initial residual = 0.0050159, Final residual = 0.000234169, No Iterations 1
DICPCG:  Solving for p, Initial residual = 0.00401202, Final residual = 3.61094e-05, No Iterations 25
time step continuity errors : sum local = 0.000756502, global = 0.00016547, cumulative = -0.00825369
ExecutionTime = 0.77 s  ClockTime = 1 s

Time = 95

DILUPBiCG:  Solving for Ux, Initial residual = 0.000537263, Final residual = 2.04695e-05, No Iterations 1
DILUPBiCG:  Solving for Uy, Initial residual = 0.00583176, Final residual = 0.000574634, No Iterations 1
DILUPBiCG:  Solving for Uz, Initial residual = 0.00536048, Final residual = 0.000258117, No Iterations 1
DICPCG:  Solving for p, Initial residual = 0.00388207, Final residual = 3.74536e-05, No Iterations 24
time step continuity errors : sum local = 0.000784985, global = 0.000162285, cumulative = -0.0080914
ExecutionTime = 0.78 s  ClockTime = 1 s

Time = 96

DILUPBiCG:  Solving for Ux, Initial residual = 0.000528325, Final residual = 7.29638e-06, No Iterations 2
DILUPBiCG:  Solving for Uy, Initial residual = 0.00557594, Final residual = 0.000280853, No Iterations 1
DILUPBiCG:  Solving for Uz, Initial residual = 0.00499356, Final residual = 0.000233232, No Iterations 1
DICPCG:  Solving for p, Initial residual = 0.00407159, Final residual = 4.05343e-05, No Iterations 17
time step continuity errors : sum local = 0.000848888, global = 0.000160523, cumulative = -0.00793088
ExecutionTime = 0.78 s  ClockTime = 1 s

Time = 97

DILUPBiCG:  Solving for Ux, Initial residual = 0.000538236, Final residual = 2.19085e-05, No Iterations 1
DILUPBiCG:  Solving for Uy, Initial residual = 0.00590862, Final residual = 0.000501692, No Iterations 1
DILUPBiCG:  Solving for Uz, Initial residual = 0.0054329, Final residual = 0.000273061, No Iterations 1
DICPCG:  Solving for p, Initial residual = 0.00408989, Final residual = 3.94963e-05, No Iterations 15
time step continuity errors : sum local = 0.000828059, global = 0.000157872, cumulative = -0.00777301
ExecutionTime = 0.79 s  ClockTime = 1 s

Time = 98

DILUPBiCG:  Solving for Ux, Initial residual = 0.000532111, Final residual = 7.46866e-06, No Iterations 2
DILUPBiCG:  Solving for Uy, Initial residual = 0.00565424, Final residual = 0.000279605, No Iterations 1
DILUPBiCG:  Solving for Uz, Initial residual = 0.00497866, Final residual = 0.000229431, No Iterations 1
DICPCG:  Solving for p, Initial residual = 0.0039757, Final residual = 3.80609e-05, No Iterations 21
time step continuity errors : sum local = 0.000797156, global = 0.000154091, cumulative = -0.00761892
ExecutionTime = 0.79 s  ClockTime = 1 s

Time = 99

DILUPBiCG:  Solving for Ux, Initial residual = 0.000536824, Final residual = 2.14453e-05, No Iterations 1
DILUPBiCG:  Solving for Uy, Initial residual = 0.00587009, Final residual = 0.000467463, No Iterations 1
DILUPBiCG:  Solving for Uz, Initial residual = 0.00537324, Final residual = 0.000258528, No Iterations 1
DICPCG:  Solving for p, Initial residual = 0.0039082, Final residual = 3.46582e-05, No Iterations 25
time step continuity errors : sum local = 0.000726317, global = 0.000149186, cumulative = -0.00746973
ExecutionTime = 0.79 s  ClockTime = 1 s

Time = 100

DILUPBiCG:  Solving for Ux, Initial residual = 0.000530125, Final residual = 1.05692e-05, No Iterations 2
DILUPBiCG:  Solving for Uy, Initial residual = 0.00557148, Final residual = 0.000280903, No Iterations 1
DILUPBiCG:  Solving for Uz, Initial residual = 0.00500937, Final residual = 0.000233893, No Iterations 1
DICPCG:  Solving for p, Initial residual = 0.00400522, Final residual = 3.50284e-05, No Iterations 25
time step continuity errors : sum local = 0.000733839, global = 0.000144427, cumulative = -0.0073253
ExecutionTime = 0.81 s  ClockTime = 1 s

Time = 101

DILUPBiCG:  Solving for Ux, Initial residual = 0.000536941, Final residual = 2.04846e-05, No Iterations 1
DILUPBiCG:  Solving for Uy, Initial residual = 0.00582655, Final residual = 0.000574828, No Iterations 1
DILUPBiCG:  Solving for Uz, Initial residual = 0.00535779, Final residual = 0.000258079, No Iterations 1
DICPCG:  Solving for p, Initial residual = 0.00387542, Final residual = 3.82542e-05, No Iterations 23
time step continuity errors : sum local = 0.000801765, global = 0.000138701, cumulative = -0.0071866
ExecutionTime = 0.81 s  ClockTime = 1 s

Time = 102

DILUPBiCG:  Solving for Ux, Initial residual = 0.000528003, Final residual = 7.28054e-06, No Iterations 2
DILUPBiCG:  Solving for Uy, Initial residual = 0.00557278, Final residual = 0.000280672, No Iterations 1
DILUPBiCG:  Solving for Uz, Initial residual = 0.00499072, Final residual = 0.000233158, No Iterations 1
DICPCG:  Solving for p, Initial residual = 0.00406906, Final residual = 3.9118e-05, No Iterations 17
time step continuity errors : sum local = 0.000819214, global = 0.000133574, cumulative = -0.00705303
ExecutionTime = 0.82 s  ClockTime = 1 s

Time = 103

DILUPBiCG:  Solving for Ux, Initial residual = 0.000538039, Final residual = 2.1923e-05, No Iterations 1
DILUPBiCG:  Solving for Uy, Initial residual = 0.00590675, Final residual = 0.000500455, No Iterations 1
DILUPBiCG:  Solving for Uz, Initial residual = 0.00543125, Final residual = 0.000273217, No Iterations 1
DICPCG:  Solving for p, Initial residual = 0.0040847, Final residual = 3.88175e-05, No Iterations 15
time step continuity errors : sum local = 0.000813827, global = 0.000127987, cumulative = -0.00692504
ExecutionTime = 0.82 s  ClockTime = 1 s

Time = 104

DILUPBiCG:  Solving for Ux, Initial residual = 0.000531877, Final residual = 7.46314e-06, No Iterations 2
DILUPBiCG:  Solving for Uy, Initial residual = 0.00565256, Final residual = 0.000279477, No Iterations 1
DILUPBiCG:  Solving for Uz, Initial residual = 0.004978, Final residual = 0.000229445, No Iterations 1
DICPCG:  Solving for p, Initial residual = 0.00397319, Final residual = 3.58986e-05, No Iterations 21
time step continuity errors : sum local = 0.000751855, global = 0.000121389, cumulative = -0.00680365
ExecutionTime = 0.82 s  ClockTime = 1 s

Time = 105

DILUPBiCG:  Solving for Ux, Initial residual = 0.000536667, Final residual = 2.14638e-05, No Iterations 1
DILUPBiCG:  Solving for Uy, Initial residual = 0.00586772, Final residual = 0.000467563, No Iterations 1
DILUPBiCG:  Solving for Uz, Initial residual = 0.00537315, Final residual = 0.00025865, No Iterations 1
DICPCG:  Solving for p, Initial residual = 0.00390484, Final residual = 3.81722e-05, No Iterations 21
time step continuity errors : sum local = 0.000799952, global = 0.000114842, cumulative = -0.00668881
ExecutionTime = 0.83 s  ClockTime = 1 s

Time = 106

DILUPBiCG:  Solving for Ux, Initial residual = 0.000529967, Final residual = 1.05996e-05, No Iterations 2
DILUPBiCG:  Solving for Uy, Initial residual = 0.00557019, Final residual = 0.000281012, No Iterations 1
DILUPBiCG:  Solving for Uz, Initial residual = 0.0050097, Final residual = 0.00023386, No Iterations 1
DICPCG:  Solving for p, Initial residual = 0.00400269, Final residual = 3.79227e-05, No Iterations 21
time step continuity errors : sum local = 0.000794461, global = 0.000108505, cumulative = -0.0065803
ExecutionTime = 0.83 s  ClockTime = 1 s

Time = 107

DILUPBiCG:  Solving for Ux, Initial residual = 0.0005368, Final residual = 2.0471e-05, No Iterations 1
DILUPBiCG:  Solving for Uy, Initial residual = 0.00582428, Final residual = 1.0523e-06, No Iterations 3
DILUPBiCG:  Solving for Uz, Initial residual = 0.0053559, Final residual = 0.000258131, No Iterations 1
DICPCG:  Solving for p, Initial residual = 0.00386867, Final residual = 3.84718e-05, No Iterations 22
time step continuity errors : sum local = 0.00080632, global = 0.000101662, cumulative = -0.00647864
ExecutionTime = 0.84 s  ClockTime = 1 s

Time = 108

DILUPBiCG:  Solving for Ux, Initial residual = 0.000527874, Final residual = 7.27296e-06, No Iterations 2
DILUPBiCG:  Solving for Uy, Initial residual = 0.00559934, Final residual = 0.000282144, No Iterations 1
DILUPBiCG:  Solving for Uz, Initial residual = 0.00499176, Final residual = 0.000233264, No Iterations 1
DICPCG:  Solving for p, Initial residual = 0.00408188, Final residual = 3.79906e-05, No Iterations 17
time step continuity errors : sum local = 0.000795598, global = 9.53786e-05, cumulative = -0.00638326
ExecutionTime = 0.84 s  ClockTime = 1 s

Time = 109

DILUPBiCG:  Solving for Ux, Initial residual = 0.000538084, Final residual = 2.19294e-05, No Iterations 1
DILUPBiCG:  Solving for Uy, Initial residual = 0.00594371, Final residual = 0.000523223, No Iterations 1
DILUPBiCG:  Solving for Uz, Initial residual = 0.0054361, Final residual = 0.000273076, No Iterations 1
DICPCG:  Solving for p, Initial residual = 0.0040853, Final residual = 3.71688e-05, No Iterations 15
time step continuity errors : sum local = 0.000779257, global = 8.90335e-05, cumulative = -0.00629423
ExecutionTime = 0.84 s  ClockTime = 1 s

Time = 110

DILUPBiCG:  Solving for Ux, Initial residual = 0.000531652, Final residual = 7.41265e-06, No Iterations 2
DILUPBiCG:  Solving for Uy, Initial residual = 0.00562202, Final residual = 0.000277389, No Iterations 1
DILUPBiCG:  Solving for Uz, Initial residual = 0.00497128, Final residual = 0.000229064, No Iterations 1
DICPCG:  Solving for p, Initial residual = 0.00396125, Final residual = 3.48126e-05, No Iterations 21
time step continuity errors : sum local = 0.000729106, global = 8.26464e-05, cumulative = -0.00621158
ExecutionTime = 0.86 s  ClockTime = 1 s

Time = 111

DILUPBiCG:  Solving for Ux, Initial residual = 0.000536551, Final residual = 2.14753e-05, No Iterations 1
DILUPBiCG:  Solving for Uy, Initial residual = 0.00588056, Final residual = 0.000463465, No Iterations 1
DILUPBiCG:  Solving for Uz, Initial residual = 0.0053733, Final residual = 0.000259149, No Iterations 1
DICPCG:  Solving for p, Initial residual = 0.00391544, Final residual = 3.59824e-05, No Iterations 21
time step continuity errors : sum local = 0.000754064, global = 7.62925e-05, cumulative = -0.00613529
ExecutionTime = 0.86 s  ClockTime = 1 s

Time = 112

DILUPBiCG:  Solving for Ux, Initial residual = 0.000529889, Final residual = 1.06852e-05, No Iterations 2
DILUPBiCG:  Solving for Uy, Initial residual = 0.0055665, Final residual = 0.000281082, No Iterations 1
DILUPBiCG:  Solving for Uz, Initial residual = 0.00501019, Final residual = 0.000233781, No Iterations 1
DICPCG:  Solving for p, Initial residual = 0.00399593, Final residual = 3.6506e-05, No Iterations 21
time step continuity errors : sum local = 0.000764782, global = 7.01787e-05, cumulative = -0.00606511
ExecutionTime = 0.87 s  ClockTime = 1 s

Time = 113

DILUPBiCG:  Solving for Ux, Initial residual = 0.000536663, Final residual = 2.04659e-05, No Iterations 1
DILUPBiCG:  Solving for Uy, Initial residual = 0.00582207, Final residual = 1.04866e-06, No Iterations 3
DILUPBiCG:  Solving for Uz, Initial residual = 0.00535166, Final residual = 0.000258314, No Iterations 1
DICPCG:  Solving for p, Initial residual = 0.00386766, Final residual = 3.70022e-05, No Iterations 21
time step continuity errors : sum local = 0.000775521, global = 6.39984e-05, cumulative = -0.00600111
ExecutionTime = 0.87 s  ClockTime = 1 s

Time = 114

DILUPBiCG:  Solving for Ux, Initial residual = 0.000527708, Final residual = 7.27774e-06, No Iterations 2
DILUPBiCG:  Solving for Uy, Initial residual = 0.00560357, Final residual = 0.000282377, No Iterations 1
DILUPBiCG:  Solving for Uz, Initial residual = 0.00499299, Final residual = 0.000233398, No Iterations 1
DICPCG:  Solving for p, Initial residual = 0.00408524, Final residual = 3.63085e-05, No Iterations 17
time step continuity errors : sum local = 0.000760371, global = 5.80713e-05, cumulative = -0.00594304
ExecutionTime = 0.88 s  ClockTime = 1 s

Time = 115

DILUPBiCG:  Solving for Ux, Initial residual = 0.000537939, Final residual = 2.19307e-05, No Iterations 1
DILUPBiCG:  Solving for Uy, Initial residual = 0.00594116, Final residual = 0.000524916, No Iterations 1
DILUPBiCG:  Solving for Uz, Initial residual = 0.00543452, Final residual = 0.000273044, No Iterations 1
DICPCG:  Solving for p, Initial residual = 0.00407856, Final residual = 3.605e-05, No Iterations 15
time step continuity errors : sum local = 0.000755801, global = 5.22188e-05, cumulative = -0.00589082
ExecutionTime = 0.88 s  ClockTime = 1 s

Time = 116

DILUPBiCG:  Solving for Ux, Initial residual = 0.000531545, Final residual = 7.42593e-06, No Iterations 2
DILUPBiCG:  Solving for Uy, Initial residual = 0.0056225, Final residual = 0.00027722, No Iterations 1
DILUPBiCG:  Solving for Uz, Initial residual = 0.00497226, Final residual = 0.000229099, No Iterations 1
DICPCG:  Solving for p, Initial residual = 0.00396288, Final residual = 3.93611e-05, No Iterations 15
time step continuity errors : sum local = 0.000824369, global = 4.65621e-05, cumulative = -0.00584426
ExecutionTime = 0.88 s  ClockTime = 1 s

Time = 117

DILUPBiCG:  Solving for Ux, Initial residual = 0.000536383, Final residual = 2.14879e-05, No Iterations 1
DILUPBiCG:  Solving for Uy, Initial residual = 0.00588021, Final residual = 0.000460419, No Iterations 1
DILUPBiCG:  Solving for Uz, Initial residual = 0.00537193, Final residual = 0.000259053, No Iterations 1
DICPCG:  Solving for p, Initial residual = 0.00390985, Final residual = 3.11022e-05, No Iterations 21
time step continuity errors : sum local = 0.000651791, global = 4.1021e-05, cumulative = -0.00580324
ExecutionTime = 0.88 s  ClockTime = 1 s

Time = 118

DILUPBiCG:  Solving for Ux, Initial residual = 0.000529768, Final residual = 1.07065e-05, No Iterations 2
DILUPBiCG:  Solving for Uy, Initial residual = 0.00556565, Final residual = 0.0002809, No Iterations 1
DILUPBiCG:  Solving for Uz, Initial residual = 0.00501137, Final residual = 0.000233904, No Iterations 1
DICPCG:  Solving for p, Initial residual = 0.00399553, Final residual = 3.90473e-05, No Iterations 21
time step continuity errors : sum local = 0.000818019, global = 3.58502e-05, cumulative = -0.00576739
ExecutionTime = 0.89 s  ClockTime = 1 s

Time = 119

DILUPBiCG:  Solving for Ux, Initial residual = 0.000536561, Final residual = 2.04507e-05, No Iterations 1
DILUPBiCG:  Solving for Uy, Initial residual = 0.00582348, Final residual = 1.04557e-06, No Iterations 3
DILUPBiCG:  Solving for Uz, Initial residual = 0.00535087, Final residual = 0.00025821, No Iterations 1
DICPCG:  Solving for p, Initial residual = 0.00386746, Final residual = 3.33027e-05, No Iterations 21
time step continuity errors : sum local = 0.000697982, global = 3.09884e-05, cumulative = -0.0057364
ExecutionTime = 0.89 s  ClockTime = 1 s

Time = 120

DILUPBiCG:  Solving for Ux, Initial residual = 0.000527552, Final residual = 7.26175e-06, No Iterations 2
DILUPBiCG:  Solving for Uy, Initial residual = 0.00560002, Final residual = 0.000282176, No Iterations 1
DILUPBiCG:  Solving for Uz, Initial residual = 0.00499342, Final residual = 0.000233461, No Iterations 1
DICPCG:  Solving for p, Initial residual = 0.0040811, Final residual = 3.58978e-05, No Iterations 17
time step continuity errors : sum local = 0.000751771, global = 2.63502e-05, cumulative = -0.00571005
ExecutionTime = 0.9 s  ClockTime = 1 s

Time = 121

DILUPBiCG:  Solving for Ux, Initial residual = 0.000537803, Final residual = 2.19119e-05, No Iterations 1
DILUPBiCG:  Solving for Uy, Initial residual = 0.00594089, Final residual = 0.000524634, No Iterations 1
DILUPBiCG:  Solving for Uz, Initial residual = 0.00543301, Final residual = 0.000272886, No Iterations 1
DICPCG:  Solving for p, Initial residual = 0.00407871, Final residual = 3.62877e-05, No Iterations 15
time step continuity errors : sum local = 0.000760785, global = 2.19825e-05, cumulative = -0.00568807
ExecutionTime = 0.91 s  ClockTime = 1 s

Time = 122

DILUPBiCG:  Solving for Ux, Initial residual = 0.000531481, Final residual = 7.42836e-06, No Iterations 2
DILUPBiCG:  Solving for Uy, Initial residual = 0.00562377, Final residual = 0.000277358, No Iterations 1
DILUPBiCG:  Solving for Uz, Initial residual = 0.00497297, Final residual = 0.000229123, No Iterations 1
DICPCG:  Solving for p, Initial residual = 0.00396089, Final residual = 3.8159e-05, No Iterations 15
time step continuity errors : sum local = 0.000799193, global = 1.80098e-05, cumulative = -0.00567006
ExecutionTime = 0.91 s  ClockTime = 1 s

Time = 123

DILUPBiCG:  Solving for Ux, Initial residual = 0.000536261, Final residual = 2.14703e-05, No Iterations 1
DILUPBiCG:  Solving for Uy, Initial residual = 0.00587839, Final residual = 0.00046121, No Iterations 1
DILUPBiCG:  Solving for Uz, Initial residual = 0.00537043, Final residual = 0.00025897, No Iterations 1
DICPCG:  Solving for p, Initial residual = 0.00390962, Final residual = 3.2002e-05, No Iterations 21
time step continuity errors : sum local = 0.000670646, global = 1.44868e-05, cumulative = -0.00565557
ExecutionTime = 0.92 s  ClockTime = 1 s

Time = 124

DILUPBiCG:  Solving for Ux, Initial residual = 0.000529717, Final residual = 1.07044e-05, No Iterations 2
DILUPBiCG:  Solving for Uy, Initial residual = 0.00556636, Final residual = 0.000281025, No Iterations 1
DILUPBiCG:  Solving for Uz, Initial residual = 0.00501071, Final residual = 0.000233869, No Iterations 1
DICPCG:  Solving for p, Initial residual = 0.0039951, Final residual = 3.83019e-05, No Iterations 21
time step continuity errors : sum local = 0.000802403, global = 1.09675e-05, cumulative = -0.00564461
ExecutionTime = 0.92 s  ClockTime = 1 s

Time = 125

DILUPBiCG:  Solving for Ux, Initial residual = 0.000536475, Final residual = 2.04379e-05, No Iterations 1
DILUPBiCG:  Solving for Uy, Initial residual = 0.00582174, Final residual = 1.04605e-06, No Iterations 3
DILUPBiCG:  Solving for Uz, Initial residual = 0.00535106, Final residual = 0.00025822, No Iterations 1
DICPCG:  Solving for p, Initial residual = 0.00386653, Final residual = 3.39281e-05, No Iterations 21
time step continuity errors : sum local = 0.000711091, global = 7.6062e-06, cumulative = -0.005637
ExecutionTime = 0.92 s  ClockTime = 1 s

Time = 126

DILUPBiCG:  Solving for Ux, Initial residual = 0.000527502, Final residual = 7.26593e-06, No Iterations 2
DILUPBiCG:  Solving for Uy, Initial residual = 0.00560049, Final residual = 0.000282246, No Iterations 1
DILUPBiCG:  Solving for Uz, Initial residual = 0.00499236, Final residual = 0.000233411, No Iterations 1
DICPCG:  Solving for p, Initial residual = 0.00408146, Final residual = 3.63118e-05, No Iterations 17
time step continuity errors : sum local = 0.000760441, global = 4.34868e-06, cumulative = -0.00563265
ExecutionTime = 0.93 s  ClockTime = 1 s

Time = 127

DILUPBiCG:  Solving for Ux, Initial residual = 0.000537726, Final residual = 2.18994e-05, No Iterations 1
DILUPBiCG:  Solving for Uy, Initial residual = 0.00594016, Final residual = 0.000524015, No Iterations 1
DILUPBiCG:  Solving for Uz, Initial residual = 0.00543363, Final residual = 0.000272927, No Iterations 1
DICPCG:  Solving for p, Initial residual = 0.0040781, Final residual = 3.65881e-05, No Iterations 15
time step continuity errors : sum local = 0.000767083, global = 1.32704e-06, cumulative = -0.00563132
ExecutionTime = 0.93 s  ClockTime = 1 s

Time = 128

DILUPBiCG:  Solving for Ux, Initial residual = 0.00053142, Final residual = 7.43129e-06, No Iterations 2
DILUPBiCG:  Solving for Uy, Initial residual = 0.00562297, Final residual = 0.000277346, No Iterations 1
DILUPBiCG:  Solving for Uz, Initial residual = 0.00497167, Final residual = 0.000229092, No Iterations 1
DICPCG:  Solving for p, Initial residual = 0.00396105, Final residual = 3.84684e-05, No Iterations 15
time step continuity errors : sum local = 0.000805674, global = -1.37453e-06, cumulative = -0.0056327
ExecutionTime = 0.94 s  ClockTime = 1 s

Time = 129

DILUPBiCG:  Solving for Ux, Initial residual = 0.000536191, Final residual = 2.14556e-05, No Iterations 1
DILUPBiCG:  Solving for Uy, Initial residual = 0.00587797, Final residual = 0.000461717, No Iterations 1
DILUPBiCG:  Solving for Uz, Initial residual = 0.0053709, Final residual = 0.000259012, No Iterations 1
DICPCG:  Solving for p, Initial residual = 0.00390939, Final residual = 3.19116e-05, No Iterations 21
time step continuity errors : sum local = 0.000668752, global = -3.47956e-06, cumulative = -0.00563618
ExecutionTime = 0.94 s  ClockTime = 1 s

Time = 130

DILUPBiCG:  Solving for Ux, Initial residual = 0.000529668, Final residual = 1.07038e-05, No Iterations 2
DILUPBiCG:  Solving for Uy, Initial residual = 0.00556584, Final residual = 0.000281021, No Iterations 1
DILUPBiCG:  Solving for Uz, Initial residual = 0.00500972, Final residual = 0.000233863, No Iterations 1
DICPCG:  Solving for p, Initial residual = 0.00399519, Final residual = 3.8466e-05, No Iterations 21
time step continuity errors : sum local = 0.000805841, global = -5.28462e-06, cumulative = -0.00564146
ExecutionTime = 0.96 s  ClockTime = 1 s

Time = 131

DILUPBiCG:  Solving for Ux, Initial residual = 0.000536418, Final residual = 2.04227e-05, No Iterations 1
DILUPBiCG:  Solving for Uy, Initial residual = 0.00582096, Final residual = 1.04557e-06, No Iterations 3
DILUPBiCG:  Solving for Uz, Initial residual = 0.00535077, Final residual = 0.000258232, No Iterations 1
DICPCG:  Solving for p, Initial residual = 0.0038666, Final residual = 3.38526e-05, No Iterations 21
time step continuity errors : sum local = 0.000709508, global = -6.79658e-06, cumulative = -0.00564826
ExecutionTime = 0.97 s  ClockTime = 1 s

Time = 132

DILUPBiCG:  Solving for Ux, Initial residual = 0.000527458, Final residual = 7.26358e-06, No Iterations 2
DILUPBiCG:  Solving for Uy, Initial residual = 0.0055997, Final residual = 0.000282247, No Iterations 1
DILUPBiCG:  Solving for Uz, Initial residual = 0.00499157, Final residual = 0.000233395, No Iterations 1
DICPCG:  Solving for p, Initial residual = 0.00408125, Final residual = 3.62546e-05, No Iterations 17
time step continuity errors : sum local = 0.000759245, global = -8.37562e-06, cumulative = -0.00565663
ExecutionTime = 0.97 s  ClockTime = 1 s

Time = 133

DILUPBiCG:  Solving for Ux, Initial residual = 0.000537678, Final residual = 2.18852e-05, No Iterations 1
DILUPBiCG:  Solving for Uy, Initial residual = 0.00593916, Final residual = 0.00052373, No Iterations 1
DILUPBiCG:  Solving for Uz, Initial residual = 0.00543255, Final residual = 0.000272889, No Iterations 1
DICPCG:  Solving for p, Initial residual = 0.00407778, Final residual = 3.65161e-05, No Iterations 15
time step continuity errors : sum local = 0.000765575, global = -9.7838e-06, cumulative = -0.00566642
ExecutionTime = 0.98 s  ClockTime = 1 s

Time = 134

DILUPBiCG:  Solving for Ux, Initial residual = 0.000531383, Final residual = 7.43071e-06, No Iterations 2
DILUPBiCG:  Solving for Uy, Initial residual = 0.00562185, Final residual = 0.000277324, No Iterations 1
DILUPBiCG:  Solving for Uz, Initial residual = 0.00497096, Final residual = 0.000229066, No Iterations 1
DICPCG:  Solving for p, Initial residual = 0.00396098, Final residual = 3.85714e-05, No Iterations 15
time step continuity errors : sum local = 0.000807832, global = -1.10774e-05, cumulative = -0.0056775
ExecutionTime = 0.98 s  ClockTime = 1 s

Time = 135

DILUPBiCG:  Solving for Ux, Initial residual = 0.000536145, Final residual = 2.14423e-05, No Iterations 1
DILUPBiCG:  Solving for Uy, Initial residual = 0.00587665, Final residual = 0.000461857, No Iterations 1
DILUPBiCG:  Solving for Uz, Initial residual = 0.00536997, Final residual = 0.000259008, No Iterations 1
DICPCG:  Solving for p, Initial residual = 0.00390926, Final residual = 3.18836e-05, No Iterations 21
[...]

Time = 966

DILUPBiCG:  Solving for Ux, Initial residual = 0.00052732, Final residual = 7.26847e-06, No Iterations 2
DILUPBiCG:  Solving for Uy, Initial residual = 0.00559496, Final residual = 0.000282144, No Iterations 1
DILUPBiCG:  Solving for Uz, Initial residual = 0.00498787, Final residual = 0.000233174, No Iterations 1
DICPCG:  Solving for p, Initial residual = 0.00407908, Final residual = 4.05563e-05, No Iterations 16
time step continuity errors : sum local = 0.000849338, global = 9.00161e-06, cumulative = 0.000836588
ExecutionTime = 5.12 s  ClockTime = 6 s

Time = 967

DILUPBiCG:  Solving for Ux, Initial residual = 0.000537499, Final residual = 2.18521e-05, No Iterations 1
DILUPBiCG:  Solving for Uy, Initial residual = 0.0059339, Final residual = 0.000522504, No Iterations 1
DILUPBiCG:  Solving for Uz, Initial residual = 0.00542803, Final residual = 0.0002726, No Iterations 1
DICPCG:  Solving for p, Initial residual = 0.00407616, Final residual = 3.54486e-05, No Iterations 15
time step continuity errors : sum local = 0.000743197, global = 9.0013e-06, cumulative = 0.000845589
ExecutionTime = 5.12 s  ClockTime = 6 s

Time = 968

DILUPBiCG:  Solving for Ux, Initial residual = 0.000531245, Final residual = 7.43487e-06, No Iterations 2
DILUPBiCG:  Solving for Uy, Initial residual = 0.0056181, Final residual = 0.000277246, No Iterations 1
DILUPBiCG:  Solving for Uz, Initial residual = 0.00496702, Final residual = 0.000228936, No Iterations 1
DICPCG:  Solving for p, Initial residual = 0.00396008, Final residual = 3.83013e-05, No Iterations 15
time step continuity errors : sum local = 0.00080218, global = 9.00256e-06, cumulative = 0.000854592
ExecutionTime = 5.12 s  ClockTime = 6 s

Time = 969

DILUPBiCG:  Solving for Ux, Initial residual = 0.000536043, Final residual = 2.14295e-05, No Iterations 1
DILUPBiCG:  Solving for Uy, Initial residual = 0.00587465, Final residual = 0.000462735, No Iterations 1
DILUPBiCG:  Solving for Uz, Initial residual = 0.00536708, Final residual = 0.000259106, No Iterations 1
DICPCG:  Solving for p, Initial residual = 0.00390912, Final residual = 3.09714e-05, No Iterations 21
time step continuity errors : sum local = 0.000649054, global = 9.00581e-06, cumulative = 0.000863597
ExecutionTime = 5.13 s  ClockTime = 6 s

Time = 970

DILUPBiCG:  Solving for Ux, Initial residual = 0.000529517, Final residual = 1.06597e-05, No Iterations 2
DILUPBiCG:  Solving for Uy, Initial residual = 0.00556225, Final residual = 0.000280856, No Iterations 1
DILUPBiCG:  Solving for Uz, Initial residual = 0.00500597, Final residual = 0.000233772, No Iterations 1
DICPCG:  Solving for p, Initial residual = 0.00399381, Final residual = 3.79626e-05, No Iterations 21
time step continuity errors : sum local = 0.000795301, global = 9.00507e-06, cumulative = 0.000872602
ExecutionTime = 5.15 s  ClockTime = 6 s

Time = 971

DILUPBiCG:  Solving for Ux, Initial residual = 0.000536278, Final residual = 2.04123e-05, No Iterations 1
DILUPBiCG:  Solving for Uy, Initial residual = 0.00581601, Final residual = 1.04393e-06, No Iterations 3
DILUPBiCG:  Solving for Uz, Initial residual = 0.0053457, Final residual = 0.000258053, No Iterations 1
DICPCG:  Solving for p, Initial residual = 0.0038653, Final residual = 3.34381e-05, No Iterations 21
time step continuity errors : sum local = 0.000700826, global = 9.0027e-06, cumulative = 0.000881605
ExecutionTime = 5.15 s  ClockTime = 6 s

Time = 972

DILUPBiCG:  Solving for Ux, Initial residual = 0.00052732, Final residual = 7.26847e-06, No Iterations 2
DILUPBiCG:  Solving for Uy, Initial residual = 0.00559496, Final residual = 0.000282144, No Iterations 1
DILUPBiCG:  Solving for Uz, Initial residual = 0.00498787, Final residual = 0.000233174, No Iterations 1
DICPCG:  Solving for p, Initial residual = 0.00407908, Final residual = 4.05563e-05, No Iterations 16
time step continuity errors : sum local = 0.000849338, global = 9.00161e-06, cumulative = 0.000890607
ExecutionTime = 5.16 s  ClockTime = 6 s

Time = 973

DILUPBiCG:  Solving for Ux, Initial residual = 0.000537499, Final residual = 2.18521e-05, No Iterations 1
DILUPBiCG:  Solving for Uy, Initial residual = 0.0059339, Final residual = 0.000522504, No Iterations 1
DILUPBiCG:  Solving for Uz, Initial residual = 0.00542803, Final residual = 0.0002726, No Iterations 1
DICPCG:  Solving for p, Initial residual = 0.00407616, Final residual = 3.54486e-05, No Iterations 15
time step continuity errors : sum local = 0.000743197, global = 9.0013e-06, cumulative = 0.000899608
ExecutionTime = 5.16 s  ClockTime = 6 s

Time = 974

DILUPBiCG:  Solving for Ux, Initial residual = 0.000531245, Final residual = 7.43487e-06, No Iterations 2
DILUPBiCG:  Solving for Uy, Initial residual = 0.0056181, Final residual = 0.000277246, No Iterations 1
DILUPBiCG:  Solving for Uz, Initial residual = 0.00496702, Final residual = 0.000228936, No Iterations 1
DICPCG:  Solving for p, Initial residual = 0.00396008, Final residual = 3.83013e-05, No Iterations 15
time step continuity errors : sum local = 0.00080218, global = 9.00256e-06, cumulative = 0.000908611
ExecutionTime = 5.16 s  ClockTime = 6 s

Time = 975

DILUPBiCG:  Solving for Ux, Initial residual = 0.000536043, Final residual = 2.14295e-05, No Iterations 1
DILUPBiCG:  Solving for Uy, Initial residual = 0.00587465, Final residual = 0.000462735, No Iterations 1
DILUPBiCG:  Solving for Uz, Initial residual = 0.00536708, Final residual = 0.000259106, No Iterations 1
DICPCG:  Solving for p, Initial residual = 0.00390912, Final residual = 3.09714e-05, No Iterations 21
time step continuity errors : sum local = 0.000649054, global = 9.00581e-06, cumulative = 0.000917616
ExecutionTime = 5.17 s  ClockTime = 6 s

Time = 976

DILUPBiCG:  Solving for Ux, Initial residual = 0.000529517, Final residual = 1.06597e-05, No Iterations 2
DILUPBiCG:  Solving for Uy, Initial residual = 0.00556225, Final residual = 0.000280856, No Iterations 1
DILUPBiCG:  Solving for Uz, Initial residual = 0.00500597, Final residual = 0.000233772, No Iterations 1
DICPCG:  Solving for p, Initial residual = 0.00399381, Final residual = 3.79626e-05, No Iterations 21
time step continuity errors : sum local = 0.000795301, global = 9.00507e-06, cumulative = 0.000926621
ExecutionTime = 5.17 s  ClockTime = 6 s

Time = 977

DILUPBiCG:  Solving for Ux, Initial residual = 0.000536278, Final residual = 2.04123e-05, No Iterations 1
DILUPBiCG:  Solving for Uy, Initial residual = 0.00581601, Final residual = 1.04393e-06, No Iterations 3
DILUPBiCG:  Solving for Uz, Initial residual = 0.0053457, Final residual = 0.000258053, No Iterations 1
DICPCG:  Solving for p, Initial residual = 0.0038653, Final residual = 3.34381e-05, No Iterations 21
time step continuity errors : sum local = 0.000700826, global = 9.0027e-06, cumulative = 0.000935624
ExecutionTime = 5.18 s  ClockTime = 6 s

Time = 978

DILUPBiCG:  Solving for Ux, Initial residual = 0.00052732, Final residual = 7.26847e-06, No Iterations 2
DILUPBiCG:  Solving for Uy, Initial residual = 0.00559496, Final residual = 0.000282144, No Iterations 1
DILUPBiCG:  Solving for Uz, Initial residual = 0.00498787, Final residual = 0.000233174, No Iterations 1
DICPCG:  Solving for p, Initial residual = 0.00407908, Final residual = 4.05563e-05, No Iterations 16
time step continuity errors : sum local = 0.000849338, global = 9.00161e-06, cumulative = 0.000944626
ExecutionTime = 5.18 s  ClockTime = 6 s

Time = 979

DILUPBiCG:  Solving for Ux, Initial residual = 0.000537499, Final residual = 2.18521e-05, No Iterations 1
DILUPBiCG:  Solving for Uy, Initial residual = 0.0059339, Final residual = 0.000522504, No Iterations 1
DILUPBiCG:  Solving for Uz, Initial residual = 0.00542803, Final residual = 0.0002726, No Iterations 1
DICPCG:  Solving for p, Initial residual = 0.00407616, Final residual = 3.54486e-05, No Iterations 15
time step continuity errors : sum local = 0.000743197, global = 9.0013e-06, cumulative = 0.000953627
ExecutionTime = 5.18 s  ClockTime = 6 s

Time = 980

DILUPBiCG:  Solving for Ux, Initial residual = 0.000531245, Final residual = 7.43487e-06, No Iterations 2
DILUPBiCG:  Solving for Uy, Initial residual = 0.0056181, Final residual = 0.000277246, No Iterations 1
DILUPBiCG:  Solving for Uz, Initial residual = 0.00496702, Final residual = 0.000228936, No Iterations 1
DICPCG:  Solving for p, Initial residual = 0.00396008, Final residual = 3.83013e-05, No Iterations 15
time step continuity errors : sum local = 0.00080218, global = 9.00256e-06, cumulative = 0.00096263
ExecutionTime = 5.19 s  ClockTime = 6 s

Time = 981

DILUPBiCG:  Solving for Ux, Initial residual = 0.000536043, Final residual = 2.14295e-05, No Iterations 1
DILUPBiCG:  Solving for Uy, Initial residual = 0.00587465, Final residual = 0.000462735, No Iterations 1
DILUPBiCG:  Solving for Uz, Initial residual = 0.00536708, Final residual = 0.000259106, No Iterations 1
DICPCG:  Solving for p, Initial residual = 0.00390912, Final residual = 3.09714e-05, No Iterations 21
time step continuity errors : sum local = 0.000649054, global = 9.00581e-06, cumulative = 0.000971635
ExecutionTime = 5.2 s  ClockTime = 6 s

Time = 982

DILUPBiCG:  Solving for Ux, Initial residual = 0.000529517, Final residual = 1.06597e-05, No Iterations 2
DILUPBiCG:  Solving for Uy, Initial residual = 0.00556225, Final residual = 0.000280856, No Iterations 1
DILUPBiCG:  Solving for Uz, Initial residual = 0.00500597, Final residual = 0.000233772, No Iterations 1
DICPCG:  Solving for p, Initial residual = 0.00399381, Final residual = 3.79626e-05, No Iterations 21
time step continuity errors : sum local = 0.000795301, global = 9.00507e-06, cumulative = 0.000980641
ExecutionTime = 5.2 s  ClockTime = 6 s

Time = 983

DILUPBiCG:  Solving for Ux, Initial residual = 0.000536278, Final residual = 2.04123e-05, No Iterations 1
DILUPBiCG:  Solving for Uy, Initial residual = 0.00581601, Final residual = 1.04393e-06, No Iterations 3
DILUPBiCG:  Solving for Uz, Initial residual = 0.0053457, Final residual = 0.000258053, No Iterations 1
DICPCG:  Solving for p, Initial residual = 0.0038653, Final residual = 3.34381e-05, No Iterations 21
time step continuity errors : sum local = 0.000700826, global = 9.0027e-06, cumulative = 0.000989643
ExecutionTime = 5.21 s  ClockTime = 6 s

Time = 984

DILUPBiCG:  Solving for Ux, Initial residual = 0.00052732, Final residual = 7.26847e-06, No Iterations 2
DILUPBiCG:  Solving for Uy, Initial residual = 0.00559496, Final residual = 0.000282144, No Iterations 1
DILUPBiCG:  Solving for Uz, Initial residual = 0.00498787, Final residual = 0.000233174, No Iterations 1
DICPCG:  Solving for p, Initial residual = 0.00407908, Final residual = 4.05563e-05, No Iterations 16
time step continuity errors : sum local = 0.000849338, global = 9.00161e-06, cumulative = 0.000998645
ExecutionTime = 5.21 s  ClockTime = 6 s

Time = 985

DILUPBiCG:  Solving for Ux, Initial residual = 0.000537499, Final residual = 2.18521e-05, No Iterations 1
DILUPBiCG:  Solving for Uy, Initial residual = 0.0059339, Final residual = 0.000522504, No Iterations 1
DILUPBiCG:  Solving for Uz, Initial residual = 0.00542803, Final residual = 0.0002726, No Iterations 1
DICPCG:  Solving for p, Initial residual = 0.00407616, Final residual = 3.54486e-05, No Iterations 15
time step continuity errors : sum local = 0.000743197, global = 9.0013e-06, cumulative = 0.00100765
ExecutionTime = 5.21 s  ClockTime = 6 s

Time = 986

DILUPBiCG:  Solving for Ux, Initial residual = 0.000531245, Final residual = 7.43487e-06, No Iterations 2
DILUPBiCG:  Solving for Uy, Initial residual = 0.0056181, Final residual = 0.000277246, No Iterations 1
DILUPBiCG:  Solving for Uz, Initial residual = 0.00496702, Final residual = 0.000228936, No Iterations 1
DICPCG:  Solving for p, Initial residual = 0.00396008, Final residual = 3.83013e-05, No Iterations 15
time step continuity errors : sum local = 0.00080218, global = 9.00256e-06, cumulative = 0.00101665
ExecutionTime = 5.22 s  ClockTime = 6 s

Time = 987

DILUPBiCG:  Solving for Ux, Initial residual = 0.000536043, Final residual = 2.14295e-05, No Iterations 1
DILUPBiCG:  Solving for Uy, Initial residual = 0.00587465, Final residual = 0.000462735, No Iterations 1
DILUPBiCG:  Solving for Uz, Initial residual = 0.00536708, Final residual = 0.000259106, No Iterations 1
DICPCG:  Solving for p, Initial residual = 0.00390912, Final residual = 3.09714e-05, No Iterations 21
time step continuity errors : sum local = 0.000649054, global = 9.00581e-06, cumulative = 0.00102565
ExecutionTime = 5.22 s  ClockTime = 6 s

Time = 988

DILUPBiCG:  Solving for Ux, Initial residual = 0.000529517, Final residual = 1.06597e-05, No Iterations 2
DILUPBiCG:  Solving for Uy, Initial residual = 0.00556225, Final residual = 0.000280856, No Iterations 1
DILUPBiCG:  Solving for Uz, Initial residual = 0.00500597, Final residual = 0.000233772, No Iterations 1
DICPCG:  Solving for p, Initial residual = 0.00399381, Final residual = 3.79626e-05, No Iterations 21
time step continuity errors : sum local = 0.000795301, global = 9.00507e-06, cumulative = 0.00103466
ExecutionTime = 5.23 s  ClockTime = 6 s

Time = 989

DILUPBiCG:  Solving for Ux, Initial residual = 0.000536278, Final residual = 2.04123e-05, No Iterations 1
DILUPBiCG:  Solving for Uy, Initial residual = 0.00581601, Final residual = 1.04393e-06, No Iterations 3
DILUPBiCG:  Solving for Uz, Initial residual = 0.0053457, Final residual = 0.000258053, No Iterations 1
DICPCG:  Solving for p, Initial residual = 0.0038653, Final residual = 3.34381e-05, No Iterations 21
time step continuity errors : sum local = 0.000700826, global = 9.0027e-06, cumulative = 0.00104366
ExecutionTime = 5.23 s  ClockTime = 6 s

Time = 990

DILUPBiCG:  Solving for Ux, Initial residual = 0.00052732, Final residual = 7.26847e-06, No Iterations 2
DILUPBiCG:  Solving for Uy, Initial residual = 0.00559496, Final residual = 0.000282144, No Iterations 1
DILUPBiCG:  Solving for Uz, Initial residual = 0.00498787, Final residual = 0.000233174, No Iterations 1
DICPCG:  Solving for p, Initial residual = 0.00407908, Final residual = 4.05563e-05, No Iterations 16
time step continuity errors : sum local = 0.000849338, global = 9.00161e-06, cumulative = 0.00105266
ExecutionTime = 5.24 s  ClockTime = 6 s

Time = 991

DILUPBiCG:  Solving for Ux, Initial residual = 0.000537499, Final residual = 2.18521e-05, No Iterations 1
DILUPBiCG:  Solving for Uy, Initial residual = 0.0059339, Final residual = 0.000522504, No Iterations 1
DILUPBiCG:  Solving for Uz, Initial residual = 0.00542803, Final residual = 0.0002726, No Iterations 1
DICPCG:  Solving for p, Initial residual = 0.00407616, Final residual = 3.54486e-05, No Iterations 15
time step continuity errors : sum local = 0.000743197, global = 9.0013e-06, cumulative = 0.00106167
ExecutionTime = 5.25 s  ClockTime = 6 s

Time = 992

DILUPBiCG:  Solving for Ux, Initial residual = 0.000531245, Final residual = 7.43487e-06, No Iterations 2
DILUPBiCG:  Solving for Uy, Initial residual = 0.0056181, Final residual = 0.000277246, No Iterations 1
DILUPBiCG:  Solving for Uz, Initial residual = 0.00496702, Final residual = 0.000228936, No Iterations 1
DICPCG:  Solving for p, Initial residual = 0.00396008, Final residual = 3.83013e-05, No Iterations 15
time step continuity errors : sum local = 0.00080218, global = 9.00256e-06, cumulative = 0.00107067
ExecutionTime = 5.25 s  ClockTime = 6 s

Time = 993

DILUPBiCG:  Solving for Ux, Initial residual = 0.000536043, Final residual = 2.14295e-05, No Iterations 1
DILUPBiCG:  Solving for Uy, Initial residual = 0.00587465, Final residual = 0.000462735, No Iterations 1
DILUPBiCG:  Solving for Uz, Initial residual = 0.00536708, Final residual = 0.000259106, No Iterations 1
DICPCG:  Solving for p, Initial residual = 0.00390912, Final residual = 3.09714e-05, No Iterations 21
time step continuity errors : sum local = 0.000649054, global = 9.00581e-06, cumulative = 0.00107967
ExecutionTime = 5.25 s  ClockTime = 6 s

Time = 994

DILUPBiCG:  Solving for Ux, Initial residual = 0.000529517, Final residual = 1.06597e-05, No Iterations 2
DILUPBiCG:  Solving for Uy, Initial residual = 0.00556225, Final residual = 0.000280856, No Iterations 1
DILUPBiCG:  Solving for Uz, Initial residual = 0.00500597, Final residual = 0.000233772, No Iterations 1
DICPCG:  Solving for p, Initial residual = 0.00399381, Final residual = 3.79626e-05, No Iterations 21
time step continuity errors : sum local = 0.000795301, global = 9.00507e-06, cumulative = 0.00108868
ExecutionTime = 5.26 s  ClockTime = 6 s

Time = 995

DILUPBiCG:  Solving for Ux, Initial residual = 0.000536278, Final residual = 2.04123e-05, No Iterations 1
DILUPBiCG:  Solving for Uy, Initial residual = 0.00581601, Final residual = 1.04393e-06, No Iterations 3
DILUPBiCG:  Solving for Uz, Initial residual = 0.0053457, Final residual = 0.000258053, No Iterations 1
DICPCG:  Solving for p, Initial residual = 0.0038653, Final residual = 3.34381e-05, No Iterations 21
time step continuity errors : sum local = 0.000700826, global = 9.0027e-06, cumulative = 0.00109768
ExecutionTime = 5.26 s  ClockTime = 6 s

Time = 996

DILUPBiCG:  Solving for Ux, Initial residual = 0.00052732, Final residual = 7.26847e-06, No Iterations 2
DILUPBiCG:  Solving for Uy, Initial residual = 0.00559496, Final residual = 0.000282144, No Iterations 1
DILUPBiCG:  Solving for Uz, Initial residual = 0.00498787, Final residual = 0.000233174, No Iterations 1
DICPCG:  Solving for p, Initial residual = 0.00407908, Final residual = 4.05563e-05, No Iterations 16
time step continuity errors : sum local = 0.000849338, global = 9.00161e-06, cumulative = 0.00110668
ExecutionTime = 5.27 s  ClockTime = 6 s

Time = 997

DILUPBiCG:  Solving for Ux, Initial residual = 0.000537499, Final residual = 2.18521e-05, No Iterations 1
DILUPBiCG:  Solving for Uy, Initial residual = 0.0059339, Final residual = 0.000522504, No Iterations 1
DILUPBiCG:  Solving for Uz, Initial residual = 0.00542803, Final residual = 0.0002726, No Iterations 1
DICPCG:  Solving for p, Initial residual = 0.00407616, Final residual = 3.54486e-05, No Iterations 15
time step continuity errors : sum local = 0.000743197, global = 9.0013e-06, cumulative = 0.00111568
ExecutionTime = 5.27 s  ClockTime = 6 s

Time = 998

DILUPBiCG:  Solving for Ux, Initial residual = 0.000531245, Final residual = 7.43487e-06, No Iterations 2
DILUPBiCG:  Solving for Uy, Initial residual = 0.0056181, Final residual = 0.000277246, No Iterations 1
DILUPBiCG:  Solving for Uz, Initial residual = 0.00496702, Final residual = 0.000228936, No Iterations 1
DICPCG:  Solving for p, Initial residual = 0.00396008, Final residual = 3.83013e-05, No Iterations 15
time step continuity errors : sum local = 0.00080218, global = 9.00256e-06, cumulative = 0.00112469
ExecutionTime = 5.27 s  ClockTime = 6 s

Time = 999

DILUPBiCG:  Solving for Ux, Initial residual = 0.000536043, Final residual = 2.14295e-05, No Iterations 1
DILUPBiCG:  Solving for Uy, Initial residual = 0.00587465, Final residual = 0.000462735, No Iterations 1
DILUPBiCG:  Solving for Uz, Initial residual = 0.00536708, Final residual = 0.000259106, No Iterations 1
DICPCG:  Solving for p, Initial residual = 0.00390912, Final residual = 3.09714e-05, No Iterations 21
time step continuity errors : sum local = 0.000649054, global = 9.00581e-06, cumulative = 0.00113369
ExecutionTime = 5.28 s  ClockTime = 6 s

Time = 1000

DILUPBiCG:  Solving for Ux, Initial residual = 0.000529517, Final residual = 1.06597e-05, No Iterations 2
DILUPBiCG:  Solving for Uy, Initial residual = 0.00556225, Final residual = 0.000280856, No Iterations 1
DILUPBiCG:  Solving for Uz, Initial residual = 0.00500597, Final residual = 0.000233772, No Iterations 1
DICPCG:  Solving for p, Initial residual = 0.00399381, Final residual = 3.79626e-05, No Iterations 21
time step continuity errors : sum local = 0.000795301, global = 9.00507e-06, cumulative = 0.0011427
ExecutionTime = 5.29 s  ClockTime = 6 s

End

