/*---------------------------------------------------------------------------*\
| =========                 |                                                 |
| \\      /  F ield         | OpenFOAM: The Open Source CFD Toolbox           |
|  \\    /   O peration     | Version:  v2012                                 |
|   \\  /    A nd           | Website:  www.openfoam.com                      |
|    \\/     M anipulation  |                                                 |
\*---------------------------------------------------------------------------*/
Build  : _7bdb509494-20201222 OPENFOAM=2012
Arch   : "LSB;label=32;scalar=64"
Exec   : simpleFoam
Date   : Jan 05 2022
Time   : 16:27:05
Host   : nipinl-pc
PID    : 16510
I/O    : uncollated
Case   : /home/nipinl/OpenFOAM/nipinl-v2012/solvers/simpleFoam/case
nProcs : 1
trapFpe: Floating point exception trapping enabled (FOAM_SIGFPE).
fileModificationChecking : Monitoring run-time modified files using timeStampMaster (fileModificationSkew 5, maxFileModificationPolls 20)
allowSystemOperations : Allowing user-supplied system call operations

// * * * * * * * * * * * * * * * * * * * * * * * * * * * * * * * * * * * * * //
Create time

--> FOAM Warning : 
    From void* Foam::dlLibraryTable::openLibrary(const Foam::fileName&, bool)
    in file db/dynamicLibrary/dlLibraryTable/dlLibraryTable.C at line 188
    Could not load "libincompressibleTurbulenceModel.so"
libincompressibleTurbulenceModel.so: cannot open shared object file: No such file or directory
--> FOAM Warning : 
    From void* Foam::dlLibraryTable::openLibrary(const Foam::fileName&, bool)
    in file db/dynamicLibrary/dlLibraryTable/dlLibraryTable.C at line 188
    Could not load "libincompressibleRASModels.so"
libincompressibleRASModels.so: cannot open shared object file: No such file or directory
--> FOAM Warning : 
    From void* Foam::dlLibraryTable::openLibrary(const Foam::fileName&, bool)
    in file db/dynamicLibrary/dlLibraryTable/dlLibraryTable.C at line 188
    Could not load "libsimpleSwakFunctionObjects.so"
libsimpleSwakFunctionObjects.so: cannot open shared object file: No such file or directory
--> FOAM Warning : 
    From void* Foam::dlLibraryTable::openLibrary(const Foam::fileName&, bool)
    in file db/dynamicLibrary/dlLibraryTable/dlLibraryTable.C at line 188
    Could not load "libswakFunctionObjects.so"
libswakFunctionObjects.so: cannot open shared object file: No such file or directory
--> FOAM Warning : 
    From void* Foam::dlLibraryTable::openLibrary(const Foam::fileName&, bool)
    in file db/dynamicLibrary/dlLibraryTable/dlLibraryTable.C at line 188
    Could not load "libgroovyBC.so"
libgroovyBC.so: cannot open shared object file: No such file or directory
--> FOAM Warning : 
    From static Foam::IOstreamOption::compressionType Foam::IOstreamOption::compressionEnum(const Foam::word&, Foam::IOstreamOption::compressionType)
    in file db/IOstreams/IOstreams/IOstreamOption.C at line 115
    Unknown compression specifier 'uncompressed', using compression off
Create mesh for time = 0


SIMPLE: convergence criteria
    field p	 tolerance 0.01
    field U	 tolerance 0.001
    field "(k|epsilon)"	 tolerance 0.001

Reading field p

Reading field U

Reading/calculating face flux field phi

Selecting incompressible transport model Newtonian
Selecting turbulence model type laminar
Selecting laminar stress model Stokes
No MRF models present

No finite volume options present

Starting time loop

Time = 1

DILUPBiCG:  Solving for Ux, Initial residual = 1, Final residual = 0.0107702, No Iterations 1
DILUPBiCG:  Solving for Uy, Initial residual = 0.00155743, Final residual = 1.28112e-05, No Iterations 1
DILUPBiCG:  Solving for Uz, Initial residual = 0.00152537, Final residual = 1.31094e-05, No Iterations 1
DICPCG:  Solving for p, Initial residual = 1, Final residual = 0.00920236, No Iterations 116
time step continuity errors : sum local = 0.130187, global = -0.00283335, cumulative = -0.00283335
ExecutionTime = 0.03 s  ClockTime = 0 s

Time = 2

DILUPBiCG:  Solving for Ux, Initial residual = 0.613299, Final residual = 0.0558804, No Iterations 1
DILUPBiCG:  Solving for Uy, Initial residual = 0.30647, Final residual = 0.00413541, No Iterations 2
DILUPBiCG:  Solving for Uz, Initial residual = 0.348627, Final residual = 0.0042286, No Iterations 2
DICPCG:  Solving for p, Initial residual = 0.0569579, Final residual = 0.000418439, No Iterations 128
time step continuity errors : sum local = 0.0434653, global = -0.000813076, cumulative = -0.00364643
ExecutionTime = 0.04 s  ClockTime = 0 s

Time = 3

DILUPBiCG:  Solving for Ux, Initial residual = 0.703615, Final residual = 0.0618506, No Iterations 1
DILUPBiCG:  Solving for Uy, Initial residual = 0.124476, Final residual = 0.0016182, No Iterations 2
DILUPBiCG:  Solving for Uz, Initial residual = 0.184113, Final residual = 0.00232485, No Iterations 2
DICPCG:  Solving for p, Initial residual = 0.0271694, Final residual = 0.000189592, No Iterations 123
time step continuity errors : sum local = 0.038019, global = 0.000852231, cumulative = -0.0027942
ExecutionTime = 0.05 s  ClockTime = 0 s

Time = 4

DILUPBiCG:  Solving for Ux, Initial residual = 0.229715, Final residual = 0.0168929, No Iterations 1
DILUPBiCG:  Solving for Uy, Initial residual = 0.101584, Final residual = 0.00129117, No Iterations 2
DILUPBiCG:  Solving for Uz, Initial residual = 0.105682, Final residual = 0.00155284, No Iterations 2
DICPCG:  Solving for p, Initial residual = 0.0699476, Final residual = 0.000527538, No Iterations 125
time step continuity errors : sum local = 0.0561567, global = 0.00108904, cumulative = -0.00170516
ExecutionTime = 0.06 s  ClockTime = 0 s

Time = 5

DILUPBiCG:  Solving for Ux, Initial residual = 0.189731, Final residual = 0.0180039, No Iterations 1
DILUPBiCG:  Solving for Uy, Initial residual = 0.196396, Final residual = 0.00233876, No Iterations 2
DILUPBiCG:  Solving for Uz, Initial residual = 0.158801, Final residual = 0.00184876, No Iterations 2
DICPCG:  Solving for p, Initial residual = 0.0683508, Final residual = 0.000676175, No Iterations 129
time step continuity errors : sum local = 0.0292749, global = 0.000557891, cumulative = -0.00114727
ExecutionTime = 0.07 s  ClockTime = 0 s

Time = 6

DILUPBiCG:  Solving for Ux, Initial residual = 0.288142, Final residual = 0.0242034, No Iterations 1
DILUPBiCG:  Solving for Uy, Initial residual = 0.157254, Final residual = 0.00173512, No Iterations 2
DILUPBiCG:  Solving for Uz, Initial residual = 0.13322, Final residual = 0.00133108, No Iterations 2
DICPCG:  Solving for p, Initial residual = 0.0476335, Final residual = 0.00046376, No Iterations 129
time step continuity errors : sum local = 0.0392395, global = 0.000724396, cumulative = -0.00042287
ExecutionTime = 0.08 s  ClockTime = 0 s

Time = 7

DILUPBiCG:  Solving for Ux, Initial residual = 0.110133, Final residual = 0.00891268, No Iterations 1
DILUPBiCG:  Solving for Uy, Initial residual = 0.0619113, Final residual = 0.000593681, No Iterations 2
DILUPBiCG:  Solving for Uz, Initial residual = 0.0574924, Final residual = 0.00535058, No Iterations 1
DICPCG:  Solving for p, Initial residual = 0.1156, Final residual = 0.000991934, No Iterations 128
time step continuity errors : sum local = 0.033139, global = 0.000585476, cumulative = 0.000162606
ExecutionTime = 0.09 s  ClockTime = 0 s

Time = 8

DILUPBiCG:  Solving for Ux, Initial residual = 0.0954844, Final residual = 0.00842467, No Iterations 1
DILUPBiCG:  Solving for Uy, Initial residual = 0.10753, Final residual = 0.0010375, No Iterations 2
DILUPBiCG:  Solving for Uz, Initial residual = 0.0943152, Final residual = 0.000950915, No Iterations 2
DICPCG:  Solving for p, Initial residual = 0.0531062, Final residual = 0.000414571, No Iterations 128
time step continuity errors : sum local = 0.0182285, global = 0.000344191, cumulative = 0.000506797
ExecutionTime = 0.1 s  ClockTime = 0 s

Time = 9

DILUPBiCG:  Solving for Ux, Initial residual = 0.13748, Final residual = 0.0112161, No Iterations 1
DILUPBiCG:  Solving for Uy, Initial residual = 0.105635, Final residual = 0.00101835, No Iterations 2
DILUPBiCG:  Solving for Uz, Initial residual = 0.0860895, Final residual = 0.00075781, No Iterations 2
DICPCG:  Solving for p, Initial residual = 0.0392749, Final residual = 0.000351085, No Iterations 127
time step continuity errors : sum local = 0.0223078, global = 0.00044275, cumulative = 0.000949546
ExecutionTime = 0.11 s  ClockTime = 0 s

Time = 10

DILUPBiCG:  Solving for Ux, Initial residual = 0.0508361, Final residual = 0.00393507, No Iterations 1
DILUPBiCG:  Solving for Uy, Initial residual = 0.10353, Final residual = 0.000933718, No Iterations 2
DILUPBiCG:  Solving for Uz, Initial residual = 0.0823551, Final residual = 0.00803216, No Iterations 1
DICPCG:  Solving for p, Initial residual = 0.0569141, Final residual = 0.0004532, No Iterations 127
time step continuity errors : sum local = 0.016948, global = 0.000338268, cumulative = 0.00128781
ExecutionTime = 0.13 s  ClockTime = 0 s

Time = 11

DILUPBiCG:  Solving for Ux, Initial residual = 0.0427633, Final residual = 0.00424941, No Iterations 1
DILUPBiCG:  Solving for Uy, Initial residual = 0.101683, Final residual = 0.000994549, No Iterations 2
DILUPBiCG:  Solving for Uz, Initial residual = 0.0897454, Final residual = 0.00867114, No Iterations 1
DICPCG:  Solving for p, Initial residual = 0.288595, Final residual = 0.00210766, No Iterations 126
time step continuity errors : sum local = 0.0122182, global = -0.000169655, cumulative = 0.00111816
ExecutionTime = 0.14 s  ClockTime = 0 s

Time = 12

DILUPBiCG:  Solving for Ux, Initial residual = 0.0601133, Final residual = 0.00515057, No Iterations 1
DILUPBiCG:  Solving for Uy, Initial residual = 0.0658566, Final residual = 0.000727552, No Iterations 2
DILUPBiCG:  Solving for Uz, Initial residual = 0.0605511, Final residual = 0.000739601, No Iterations 2
DICPCG:  Solving for p, Initial residual = 0.110689, Final residual = 0.00083335, No Iterations 126
time step continuity errors : sum local = 0.0123704, global = -0.00014437, cumulative = 0.00097379
ExecutionTime = 0.15 s  ClockTime = 0 s

Time = 13

DILUPBiCG:  Solving for Ux, Initial residual = 0.0224184, Final residual = 0.00191736, No Iterations 1
DILUPBiCG:  Solving for Uy, Initial residual = 0.0631941, Final residual = 0.000554068, No Iterations 2
DILUPBiCG:  Solving for Uz, Initial residual = 0.0495671, Final residual = 0.00469749, No Iterations 1
DICPCG:  Solving for p, Initial residual = 0.168775, Final residual = 0.00113869, No Iterations 126
time step continuity errors : sum local = 0.00905966, global = -0.000170313, cumulative = 0.000803477
ExecutionTime = 0.16 s  ClockTime = 0 s

Time = 14

DILUPBiCG:  Solving for Ux, Initial residual = 0.0211284, Final residual = 0.00018828, No Iterations 2
DILUPBiCG:  Solving for Uy, Initial residual = 0.0694118, Final residual = 0.000613454, No Iterations 2
DILUPBiCG:  Solving for Uz, Initial residual = 0.0568322, Final residual = 0.000449153, No Iterations 2
DICPCG:  Solving for p, Initial residual = 0.0500839, Final residual = 0.000477043, No Iterations 125
time step continuity errors : sum local = 0.0111965, global = -0.000201575, cumulative = 0.000601902
ExecutionTime = 0.17 s  ClockTime = 1 s

Time = 15

DILUPBiCG:  Solving for Ux, Initial residual = 0.0283754, Final residual = 0.00274291, No Iterations 1
DILUPBiCG:  Solving for Uy, Initial residual = 0.0617068, Final residual = 0.00050692, No Iterations 2
DILUPBiCG:  Solving for Uz, Initial residual = 0.0488129, Final residual = 0.0003779, No Iterations 2
DICPCG:  Solving for p, Initial residual = 0.0390413, Final residual = 0.000366806, No Iterations 122
time step continuity errors : sum local = 0.0101701, global = -0.000231709, cumulative = 0.000370193
ExecutionTime = 0.18 s  ClockTime = 1 s

Time = 16

DILUPBiCG:  Solving for Ux, Initial residual = 0.009955, Final residual = 0.000773996, No Iterations 1
DILUPBiCG:  Solving for Uy, Initial residual = 0.0590868, Final residual = 0.00582103, No Iterations 1
DILUPBiCG:  Solving for Uz, Initial residual = 0.0483771, Final residual = 0.00453588, No Iterations 1
DICPCG:  Solving for p, Initial residual = 0.0423203, Final residual = 0.000353202, No Iterations 125
time step continuity errors : sum local = 0.00744419, global = -0.000166708, cumulative = 0.000203485
ExecutionTime = 0.19 s  ClockTime = 1 s

Time = 17

DILUPBiCG:  Solving for Ux, Initial residual = 0.0103149, Final residual = 9.09566e-05, No Iterations 2
DILUPBiCG:  Solving for Uy, Initial residual = 0.0482749, Final residual = 0.00482408, No Iterations 1
DILUPBiCG:  Solving for Uz, Initial residual = 0.0441341, Final residual = 0.00409181, No Iterations 1
DICPCG:  Solving for p, Initial residual = 0.0593754, Final residual = 0.000522999, No Iterations 125
time step continuity errors : sum local = 0.00709486, global = -0.000124298, cumulative = 7.91863e-05
ExecutionTime = 0.2 s  ClockTime = 1 s

Time = 18

DILUPBiCG:  Solving for Ux, Initial residual = 0.0128289, Final residual = 0.00118495, No Iterations 1
DILUPBiCG:  Solving for Uy, Initial residual = 0.0358655, Final residual = 0.000326668, No Iterations 2
DILUPBiCG:  Solving for Uz, Initial residual = 0.0317049, Final residual = 0.00303172, No Iterations 1
DICPCG:  Solving for p, Initial residual = 0.0623216, Final residual = 0.000562173, No Iterations 124
time step continuity errors : sum local = 0.00654858, global = -6.72704e-05, cumulative = 1.19159e-05
ExecutionTime = 0.21 s  ClockTime = 1 s

Time = 19

DILUPBiCG:  Solving for Ux, Initial residual = 0.00448459, Final residual = 3.74035e-05, No Iterations 2
DILUPBiCG:  Solving for Uy, Initial residual = 0.0361432, Final residual = 0.000290583, No Iterations 2
DILUPBiCG:  Solving for Uz, Initial residual = 0.0291366, Final residual = 0.00276891, No Iterations 1
DICPCG:  Solving for p, Initial residual = 0.0412289, Final residual = 0.000375739, No Iterations 122
time step continuity errors : sum local = 0.00554477, global = 0.000107195, cumulative = 0.000119111
ExecutionTime = 0.22 s  ClockTime = 1 s

Time = 20

DILUPBiCG:  Solving for Ux, Initial residual = 0.00516896, Final residual = 0.000481583, No Iterations 1
DILUPBiCG:  Solving for Uy, Initial residual = 0.0343527, Final residual = 0.000271132, No Iterations 2
DILUPBiCG:  Solving for Uz, Initial residual = 0.0282928, Final residual = 0.00275171, No Iterations 1
DICPCG:  Solving for p, Initial residual = 0.0299722, Final residual = 0.000245797, No Iterations 123
time step continuity errors : sum local = 0.00449206, global = 2.89919e-05, cumulative = 0.000148103
ExecutionTime = 0.23 s  ClockTime = 1 s

Time = 21

DILUPBiCG:  Solving for Ux, Initial residual = 0.00595341, Final residual = 0.000505739, No Iterations 1
DILUPBiCG:  Solving for Uy, Initial residual = 0.0293097, Final residual = 0.000219229, No Iterations 2
DILUPBiCG:  Solving for Uz, Initial residual = 0.0240047, Final residual = 0.00231854, No Iterations 1
DICPCG:  Solving for p, Initial residual = 0.0254648, Final residual = 0.000238402, No Iterations 117
time step continuity errors : sum local = 0.00455641, global = -3.78594e-05, cumulative = 0.000110243
ExecutionTime = 0.24 s  ClockTime = 1 s

Time = 22

DILUPBiCG:  Solving for Ux, Initial residual = 0.00219252, Final residual = 0.000183484, No Iterations 1
DILUPBiCG:  Solving for Uy, Initial residual = 0.0266198, Final residual = 0.00259766, No Iterations 1
DILUPBiCG:  Solving for Uz, Initial residual = 0.022136, Final residual = 0.00204237, No Iterations 1
DICPCG:  Solving for p, Initial residual = 0.0232246, Final residual = 0.000180065, No Iterations 123
time step continuity errors : sum local = 0.0031654, global = 4.51415e-05, cumulative = 0.000155385
ExecutionTime = 0.25 s  ClockTime = 1 s

Time = 23

DILUPBiCG:  Solving for Ux, Initial residual = 0.00239501, Final residual = 1.91468e-05, No Iterations 2
DILUPBiCG:  Solving for Uy, Initial residual = 0.0214509, Final residual = 0.00210173, No Iterations 1
DILUPBiCG:  Solving for Uz, Initial residual = 0.0195747, Final residual = 0.00180428, No Iterations 1
DICPCG:  Solving for p, Initial residual = 0.0228684, Final residual = 0.000159725, No Iterations 122
time step continuity errors : sum local = 0.00253597, global = 2.80459e-05, cumulative = 0.000183431
ExecutionTime = 0.26 s  ClockTime = 1 s

Time = 24

DILUPBiCG:  Solving for Ux, Initial residual = 0.00272638, Final residual = 0.000261725, No Iterations 1
DILUPBiCG:  Solving for Uy, Initial residual = 0.0177608, Final residual = 0.00175192, No Iterations 1
DILUPBiCG:  Solving for Uz, Initial residual = 0.0157773, Final residual = 0.00145297, No Iterations 1
DICPCG:  Solving for p, Initial residual = 0.0204372, Final residual = 0.000163197, No Iterations 122
time step continuity errors : sum local = 0.00251397, global = 4.22798e-05, cumulative = 0.00022571
ExecutionTime = 0.27 s  ClockTime = 1 s

Time = 25

DILUPBiCG:  Solving for Ux, Initial residual = 0.0010596, Final residual = 8.51824e-06, No Iterations 2
DILUPBiCG:  Solving for Uy, Initial residual = 0.0164074, Final residual = 0.000118888, No Iterations 2
DILUPBiCG:  Solving for Uz, Initial residual = 0.0140151, Final residual = 0.00129313, No Iterations 1
DICPCG:  Solving for p, Initial residual = 0.0168162, Final residual = 0.000147877, No Iterations 121
time step continuity errors : sum local = 0.00237551, global = -8.21813e-07, cumulative = 0.000224889
ExecutionTime = 0.28 s  ClockTime = 1 s

Time = 26

DILUPBiCG:  Solving for Ux, Initial residual = 0.00118829, Final residual = 0.000114514, No Iterations 1
DILUPBiCG:  Solving for Uy, Initial residual = 0.0144118, Final residual = 0.000105912, No Iterations 2
DILUPBiCG:  Solving for Uz, Initial residual = 0.0126275, Final residual = 0.00120177, No Iterations 1
DICPCG:  Solving for p, Initial residual = 0.014, Final residual = 0.000136712, No Iterations 121
time step continuity errors : sum local = 0.00230238, global = 2.58145e-05, cumulative = 0.000250703
ExecutionTime = 0.29 s  ClockTime = 1 s

Time = 27

DILUPBiCG:  Solving for Ux, Initial residual = 0.00126732, Final residual = 0.000113632, No Iterations 1
DILUPBiCG:  Solving for Uy, Initial residual = 0.0123045, Final residual = 0.00119001, No Iterations 1
DILUPBiCG:  Solving for Uz, Initial residual = 0.0106707, Final residual = 0.000992884, No Iterations 1
DICPCG:  Solving for p, Initial residual = 0.0118838, Final residual = 0.000118113, No Iterations 119
time step continuity errors : sum local = 0.00201282, global = -1.53441e-05, cumulative = 0.000235359
ExecutionTime = 0.3 s  ClockTime = 1 s

Time = 28

DILUPBiCG:  Solving for Ux, Initial residual = 0.000536582, Final residual = 5.63725e-06, No Iterations 2
DILUPBiCG:  Solving for Uy, Initial residual = 0.0104045, Final residual = 0.000969742, No Iterations 1
DILUPBiCG:  Solving for Uz, Initial residual = 0.00941524, Final residual = 0.000837433, No Iterations 1
DICPCG:  Solving for p, Initial residual = 0.0103173, Final residual = 8.72147e-05, No Iterations 120
time step continuity errors : sum local = 0.00145799, global = -2.11493e-06, cumulative = 0.000233244
ExecutionTime = 0.31 s  ClockTime = 1 s

Time = 29

DILUPBiCG:  Solving for Ux, Initial residual = 0.00056073, Final residual = 4.46452e-06, No Iterations 2
DILUPBiCG:  Solving for Uy, Initial residual = 0.00860565, Final residual = 0.000807872, No Iterations 1
DILUPBiCG:  Solving for Uz, Initial residual = 0.00825327, Final residual = 0.000734571, No Iterations 1
DICPCG:  Solving for p, Initial residual = 0.00908878, Final residual = 6.55835e-05, No Iterations 120
time step continuity errors : sum local = 0.00107081, global = -1.61203e-06, cumulative = 0.000231632
ExecutionTime = 0.32 s  ClockTime = 1 s

Time = 30

DILUPBiCG:  Solving for Ux, Initial residual = 0.000594667, Final residual = 5.7629e-05, No Iterations 1
DILUPBiCG:  Solving for Uy, Initial residual = 0.00735738, Final residual = 0.000691744, No Iterations 1
DILUPBiCG:  Solving for Uz, Initial residual = 0.0069119, Final residual = 0.000598145, No Iterations 1
DICPCG:  Solving for p, Initial residual = 0.00783357, Final residual = 6.85307e-05, No Iterations 120
time step continuity errors : sum local = 0.00110981, global = -6.71231e-06, cumulative = 0.00022492
ExecutionTime = 0.34 s  ClockTime = 1 s

Time = 31

DILUPBiCG:  Solving for Ux, Initial residual = 0.000272182, Final residual = 4.3586e-06, No Iterations 2
DILUPBiCG:  Solving for Uy, Initial residual = 0.00642024, Final residual = 4.61882e-05, No Iterations 2
DILUPBiCG:  Solving for Uz, Initial residual = 0.00598378, Final residual = 0.000524085, No Iterations 1
DICPCG:  Solving for p, Initial residual = 0.00663032, Final residual = 4.41524e-05, No Iterations 120
time step continuity errors : sum local = 0.000720525, global = -1.77205e-05, cumulative = 0.000207199
ExecutionTime = 0.35 s  ClockTime = 1 s

Time = 32

DILUPBiCG:  Solving for Ux, Initial residual = 0.000272728, Final residual = 2.71032e-05, No Iterations 1
DILUPBiCG:  Solving for Uy, Initial residual = 0.00544843, Final residual = 3.81534e-05, No Iterations 2
DILUPBiCG:  Solving for Uz, Initial residual = 0.00515732, Final residual = 0.000498072, No Iterations 1
DICPCG:  Solving for p, Initial residual = 0.00563639, Final residual = 5.29926e-05, No Iterations 119
time step continuity errors : sum local = 0.00087396, global = -8.31765e-06, cumulative = 0.000198882
ExecutionTime = 0.36 s  ClockTime = 1 s

Time = 33

DILUPBiCG:  Solving for Ux, Initial residual = 0.000277143, Final residual = 2.71772e-05, No Iterations 1
DILUPBiCG:  Solving for Uy, Initial residual = 0.00455514, Final residual = 4.20663e-05, No Iterations 2
DILUPBiCG:  Solving for Uz, Initial residual = 0.00421947, Final residual = 0.000418271, No Iterations 1
DICPCG:  Solving for p, Initial residual = 0.00475748, Final residual = 4.28337e-05, No Iterations 116
time step continuity errors : sum local = 0.000709048, global = -9.15814e-06, cumulative = 0.000189723
ExecutionTime = 0.37 s  ClockTime = 1 s

Time = 34

DILUPBiCG:  Solving for Ux, Initial residual = 0.000137121, Final residual = 2.10503e-06, No Iterations 2
DILUPBiCG:  Solving for Uy, Initial residual = 0.00389949, Final residual = 0.000339467, No Iterations 1
DILUPBiCG:  Solving for Uz, Initial residual = 0.0036345, Final residual = 0.00030775, No Iterations 1
DICPCG:  Solving for p, Initial residual = 0.00390118, Final residual = 3.46033e-05, No Iterations 117
time step continuity errors : sum local = 0.00057071, global = -8.95217e-06, cumulative = 0.000180771
ExecutionTime = 0.38 s  ClockTime = 1 s

Time = 35

DILUPBiCG:  Solving for Ux, Initial residual = 0.000128383, Final residual = 1.18963e-05, No Iterations 1
DILUPBiCG:  Solving for Uy, Initial residual = 0.00315405, Final residual = 3.47967e-05, No Iterations 2
DILUPBiCG:  Solving for Uz, Initial residual = 0.00319829, Final residual = 2.55937e-05, No Iterations 2
DICPCG:  Solving for p, Initial residual = 0.00345137, Final residual = 3.41044e-05, No Iterations 119
time step continuity errors : sum local = 0.000559519, global = -4.45757e-06, cumulative = 0.000176314
ExecutionTime = 0.39 s  ClockTime = 1 s

Time = 36

DILUPBiCG:  Solving for Ux, Initial residual = 0.00012753, Final residual = 1.20718e-05, No Iterations 1
DILUPBiCG:  Solving for Uy, Initial residual = 0.0025974, Final residual = 0.000239241, No Iterations 1
DILUPBiCG:  Solving for Uz, Initial residual = 0.002665, Final residual = 2.94036e-05, No Iterations 2
DICPCG:  Solving for p, Initial residual = 0.00288899, Final residual = 2.8273e-05, No Iterations 120
time step continuity errors : sum local = 0.000462699, global = -4.82104e-06, cumulative = 0.000171493
ExecutionTime = 0.4 s  ClockTime = 1 s

Time = 37

DILUPBiCG:  Solving for Ux, Initial residual = 6.86278e-05, Final residual = 1.11349e-06, No Iterations 2
DILUPBiCG:  Solving for Uy, Initial residual = 0.00232049, Final residual = 0.000201336, No Iterations 1
DILUPBiCG:  Solving for Uz, Initial residual = 0.00230963, Final residual = 0.000184573, No Iterations 1
DICPCG:  Solving for p, Initial residual = 0.00233864, Final residual = 2.31072e-05, No Iterations 117
time step continuity errors : sum local = 0.000378524, global = -1.57922e-06, cumulative = 0.000169913
ExecutionTime = 0.4 s  ClockTime = 1 s

Time = 38

DILUPBiCG:  Solving for Ux, Initial residual = 5.98443e-05, Final residual = 5.20965e-06, No Iterations 1
DILUPBiCG:  Solving for Uy, Initial residual = 0.00185872, Final residual = 1.24189e-05, No Iterations 2
DILUPBiCG:  Solving for Uz, Initial residual = 0.00197125, Final residual = 0.000171025, No Iterations 1
DICPCG:  Solving for p, Initial residual = 0.00202231, Final residual = 1.43921e-05, No Iterations 119
time step continuity errors : sum local = 0.000236284, global = 5.17325e-06, cumulative = 0.000175087
ExecutionTime = 0.41 s  ClockTime = 1 s

Time = 39

DILUPBiCG:  Solving for Ux, Initial residual = 5.9333e-05, Final residual = 5.38203e-06, No Iterations 1
DILUPBiCG:  Solving for Uy, Initial residual = 0.00147615, Final residual = 1.26743e-05, No Iterations 2
DILUPBiCG:  Solving for Uz, Initial residual = 0.00152165, Final residual = 1.1884e-05, No Iterations 2
DICPCG:  Solving for p, Initial residual = 0.00170334, Final residual = 1.48791e-05, No Iterations 119
time step continuity errors : sum local = 0.000244591, global = 5.66699e-09, cumulative = 0.000175092
ExecutionTime = 0.42 s  ClockTime = 1 s

Time = 40

DILUPBiCG:  Solving for Ux, Initial residual = 3.49567e-05, Final residual = 6.62262e-06, No Iterations 1
DILUPBiCG:  Solving for Uy, Initial residual = 0.00128606, Final residual = 1.50021e-05, No Iterations 2
DILUPBiCG:  Solving for Uz, Initial residual = 0.00129697, Final residual = 1.60147e-05, No Iterations 2
DICPCG:  Solving for p, Initial residual = 0.00136679, Final residual = 1.12877e-05, No Iterations 119
time step continuity errors : sum local = 0.000185502, global = -1.47685e-06, cumulative = 0.000173616
ExecutionTime = 0.44 s  ClockTime = 1 s

Time = 41

DILUPBiCG:  Solving for Ux, Initial residual = 2.55128e-05, Final residual = 2.01562e-06, No Iterations 1
DILUPBiCG:  Solving for Uy, Initial residual = 0.00106884, Final residual = 9.49493e-05, No Iterations 1
DILUPBiCG:  Solving for Uz, Initial residual = 0.00113864, Final residual = 8.60568e-05, No Iterations 1
DICPCG:  Solving for p, Initial residual = 0.00110869, Final residual = 9.32932e-06, No Iterations 120
time step continuity errors : sum local = 0.000153145, global = -2.09664e-06, cumulative = 0.000171519
ExecutionTime = 0.45 s  ClockTime = 1 s

Time = 42

DILUPBiCG:  Solving for Ux, Initial residual = 2.80696e-05, Final residual = 2.31812e-06, No Iterations 1
DILUPBiCG:  Solving for Uy, Initial residual = 0.000805857, Final residual = 5.69065e-06, No Iterations 2
DILUPBiCG:  Solving for Uz, Initial residual = 0.000925832, Final residual = 6.28462e-06, No Iterations 2
DICPCG:  Solving for p, Initial residual = 0.000962211, Final residual = 9.08735e-06, No Iterations 87
time step continuity errors : sum local = 0.000149056, global = 3.90335e-05, cumulative = 0.000210552
ExecutionTime = 0.46 s  ClockTime = 1 s


SIMPLE solution converged in 42 iterations

End

